49
 energy: -86.384912329995 gnorm: 0.000606657103 xtb: 6.6.0 (conda-forge)
C           -3.08319341023389        1.07696022754094        0.85761741277391
H           -4.13577790539718        1.23789740695386        1.04758921687910
C           -2.35377252003693        1.58025904836094       -0.23225880572374
H           -2.74929747966420        2.19361098272414       -1.02971906883519
C           -0.98665484994256        1.28293856765782       -0.00890597145739
C           -2.17610062339394        0.46279417489318        1.74121923687730
H           -2.43003774263892       -0.00018363252203        2.68539871578750
C           -0.89249429810701        0.59779850391080        1.21864778193613
H            0.01007872924639        0.17337254635252        1.63535464716222
C           -5.08930031079750       -1.06933401680785       -1.68465968643219
H           -5.93225254277962       -0.45445138025486       -1.39677876425302
C           -4.23657041595994       -0.83641736032478       -2.78760100122122
H           -4.31436807281080       -0.01230209068113       -3.48414287863252
C           -3.37410477110363       -1.94015442475465       -2.90717834049210
H           -2.64996791034543       -2.10734325329901       -3.69505375082064
C           -4.76267117018310       -2.32609628072521       -1.13818616317240
H           -5.29151919841276       -2.83113789648211       -0.33979289039499
C           -3.69236333479789       -2.85549031625832       -1.88172779998436
H           -3.24550154791839       -3.83432623003777       -1.75099912075217
Fe          -2.80084597168419       -0.81956746782928       -0.75391034805804
C            0.13481609129711        1.61487874086968       -0.91022661778869
H           -0.20925901060911        1.70613942337676       -1.94062130421709
H            0.91413714952848        0.85499597186212       -0.85682617880248
N            0.82077102223588        2.95541692727576       -0.56481701133984
C            1.36010371883762        2.87512277566767        0.79842238532854
H            0.55015280142278        2.59985219983430        1.47420570026743
H            2.12109862060423        2.09862486148668        0.84580117481085
H            1.78942697023964        3.83141823927236        1.09049231428704
C           -0.17419440660745        4.03410877861823       -0.63376803898271
H            0.27274219054627        4.97772853134610       -0.32736641994680
H           -0.55133085108270        4.12078295114959       -1.65041534105435
H           -1.00667200595001        3.78139983257491        0.02257290389886
C            1.90715718456452        3.20821360767142       -1.51931357277072
H            1.50476999000848        3.27938712297217       -2.52806287842534
H            2.41563567902562        4.13814413260725       -1.26763238159567
H            2.62157955884897        2.38720633943624       -1.48876511994651
P            0.70947030349980       -2.72415198070008       -0.60947947965666
F           -0.14553340963710       -4.06093162724085       -0.94076187255157
F            0.88335521573683       -2.42172829802525       -2.19924151744509
F            2.08509201833845       -3.61354252133067       -0.64823471479648
F            1.61241271743849       -1.40493283988379       -0.28070045268567
F            0.57954300040228       -3.02464714844676        0.98214123014697
F           -0.63631624414177       -1.82895288110308       -0.57458701398468
C            0.64365421388873        1.22818394881633        6.21068532533066
C            0.91392449135276        1.13904348086195        7.61539006902215
N            1.13392479428722        1.07432033028588        8.73857167432184
H           -0.34327164170212        0.81749834201929        6.00104317560613
H            0.67454231238241        2.27136168282331        5.89925371299194
H            1.39074538186000        0.66009853430558        5.65772174860925
