141
 energy: -203.673947968345 gnorm: 0.000784544872 xtb: 6.6.0 (conda-forge)
C           -1.64770999999843       -0.47374000005644       -1.11824000000659
H           -1.55888977964211       -1.12521206331376       -1.97068950152992
C           -1.45254105985703        0.92608315990720       -1.12232501015791
H           -1.19169793809489        1.52423949554544       -1.97858288248189
C           -1.73883477144499        1.41180677078937        0.17379427799693
H           -1.74284150315442        2.44631803372520        0.47286010318597
C           -2.05535291058227       -0.85457499103933        0.18086847290575
H           -2.33363937021844       -1.84834077497230        0.48733668865620
C           -2.11185444833017        0.31127402020195        0.98002401174804
H           -2.45220572943796        0.36332157499697        2.00011079110965
C            1.75175540809664       -0.95476143355300       -0.27112673861865
H            1.91058540636826       -1.58086014699346       -1.13208983818294
C            1.96956929542690        0.44015456934516       -0.20727998203031
H            2.32483461402576        1.06181258586252       -1.01152623559425
C            1.71986198314214        0.86032724014900        1.11900306201786
H            1.85796668832319        1.85681224289169        1.50246394333637
C            1.36922543755403       -1.39743460042341        1.01565386712545
H            1.19347920340740       -2.41942144297663        1.30464550572693
C            1.34874854858040       -0.27523175919231        1.87518039126293
H            1.15791493061569       -0.29464595013514        2.93471475758363
Fe          -0.08459295998735        0.01032410329170        0.28142513984664
C            1.91601766200353       -0.30636739956011        7.62763462960948
C            2.54490660001125       -1.54480392317195        7.28274924067582
N            3.03843159973928       -2.53950458496450        7.00138473701850
H            2.05600187836114       -0.10961468535349        8.68937548497627
H            2.35818886453745        0.50139298104222        7.04629968055534
H            0.84966583655942       -0.37830482884356        7.40723499144325
C           -2.51322374667832       -2.74067764655374        5.50596358065898
C           -1.80824497900863       -1.73596389638250        6.23648164584321
N           -1.25083075229119       -0.92012811877159        6.81676124317094
H           -2.60034291349398       -3.64038974378968        6.11326629312527
H           -3.50874358678942       -2.36687524387533        5.26096239997934
H           -1.97094327991637       -2.97030921519381        4.59009917745915
C           -1.12569040092128        4.20736863735923        4.87222625895844
C           -0.11861160813113        4.97783235145656        4.21441367785790
N            0.68173947886628        5.59987622555202        3.68049876833079
H           -1.13689420481636        4.45557444182135        5.93264092208885
H           -2.09607299610171        4.44120085194143        4.43118407092640
H           -0.91114725237540        3.14724720337225        4.74729257032414
C            0.97267461126748       -6.95257888026633        4.54656972542250
C            0.98650219816181       -8.28651264703236        5.06530758355683
N            0.98340148689582       -9.35709643583770        5.47264893019504
H            1.04087702430115       -6.24042456482297        5.36744212652706
H            1.81940340228575       -6.81298503728686        3.87611436602806
H            0.04174562763042       -6.79746828056215        3.99962459240240
C           -5.87161897199850        1.21164679698118        6.28788331461267
C           -5.62122393403611       -0.04745317191165        5.65720955383545
N           -5.42234188054188       -1.05514963489333        5.15052572660630
H           -5.14982504797059        1.36283539303112        7.08973043191549
H           -5.77148449038901        2.01120955250153        5.55501188992558
H           -6.87991855302494        1.21871876826882        6.70021111041528
C            3.86117251270396        6.36825367240536        4.07853692499984
C            4.03203933579180        6.43056158786875        5.49811316304885
N            4.16356840556681        6.47701686139624        6.63524665855077
H            2.81543630243207        6.15090008935881        3.85462707993575
H            4.13739733244411        7.32396750864500        3.63592282721729
H            4.49241465284728        5.58042510303837        3.66996256444988
C           -3.39707129636082       -9.40293862646567        2.86324062675727
C           -2.62943865839143       -8.19878748515606        2.92893585219509
N           -2.01772913530473       -7.23145423541158        2.97607246077193
H           -4.20109582378971       -9.36246355600347        3.59708658118660
H           -3.81758931233616       -9.51099892937652        1.86388554748035
H           -2.75157062514279      -10.25314505731388        3.08121362427049
C           -3.76003148321636        7.78794946008353        2.28701005432260
C           -3.82967657058486        6.49497307672434        2.89339262673063
N           -3.88534444426980        5.46156893047067        3.38431739766570
H           -4.00775855629390        8.54949003217564        3.02562672678886
H           -2.75040043849637        7.95719743293613        1.91471455897548
H           -4.46397282313258        7.84016369616590        1.45746103371802
C            6.14824193752004       -3.56808031391245        0.26734302557369
C            7.57399986411737       -3.68468032007782        0.34239301767139
N            8.71413193790606       -3.77363560257975        0.40192301219145
H            5.76473511269850       -3.17965989296665        1.20984826607879
H            5.88388880794476       -2.88708861009226       -0.54005676065321
H            5.71224080142177       -4.54700665284004        0.07307467527003
C           -6.34698953644042       -4.29297137796860        0.83480316750582
C           -6.26936224988953       -4.02910906730851       -0.56863230271863
N           -6.20074619020112       -3.81600192040241       -1.69195358195256
H           -5.46910136817576       -4.86040070866968        1.14182211600506
H           -6.37913233228961       -3.35169043416986        1.38187836325499
H           -7.24618191018833       -4.86939904990414        1.04830926516575
C            0.92522702804635        5.95057235578061       -1.75546760356797
C            1.30008446905789        5.28284696418324       -2.96391473408329
N            1.58946283814910        4.74549827277028       -3.93338487363622
H            1.17702521022915        5.32588764474584       -0.90013357239672
H            1.45444594057990        6.89939891918637       -1.68349302372378
H           -0.15079730093686        6.13251650424243       -1.77024797016815
C           -0.34062551800294       -7.75522344956832       -0.29775788705737
C            0.75931947373926       -6.93212825059354       -0.69612468236436
N            1.64286382849137       -6.27590202728005       -1.01356813595447
H           -0.64944055550916       -7.48899289249624        0.71276527198210
H           -1.17847042694524       -7.60022024724712       -0.97926366082769
H           -0.03868081950581       -8.80122130221191       -0.32372979145285
C           -6.70133103954387        1.72661663050960       -0.93439284543739
C           -6.24585072159419        2.53289881225748       -2.02416214455690
N           -5.88861412702830        3.17674652216882       -2.90109887390084
H           -6.34747653324165        2.15404173253904        0.00286885798566
H           -7.79025200849262        1.69603060081154       -0.93492952116537
H           -6.30662684458289        0.71741174517892       -1.04419033955394
C            8.47804308564430        0.72626352484847       -2.20218920966563
C            8.99177911696021        1.96045679967582       -2.71168222602662
N            9.40030013107435        2.95024179742319       -3.11923108221144
H            8.25748511931818        0.83368855322215       -1.14124419726730
H            7.56449043013790        0.46952180968276       -2.74062565740501
H            9.21578666445266       -0.06253721897488       -2.34175622861988
C           -3.93717650964151       -5.31286688743166       -3.67969584653959
C           -3.45484628839946       -6.34142319344838       -2.81348585634831
N           -3.07346773104674       -7.16124565401485       -2.10970117518046
H           -4.70593922279009       -4.74071320354083       -3.15725418422425
H           -3.11385768941978       -4.65477291618612       -3.95390928081405
H           -4.36103237546922       -5.75953631625845       -4.57787509210710
C           -3.62590041185888        5.18517770925635       -4.21239949964170
C           -2.92855748730009        5.78377909813200       -3.11958316162181
N           -2.36888260105601        6.26195726578469       -2.24124128303601
H           -4.40184011185023        4.52327038971488       -3.82473700419122
H           -4.08168701677786        5.96242912354885       -4.82391071643357
H           -2.92449958586026        4.61005020433913       -4.81549465117694
C            2.55665635419195       -3.97091375666789       -5.49722377428010
C            3.20934338591937       -3.87808897063718       -6.76702122728918
N            3.72117964472747       -3.79882361698148       -7.78887919319999
H            3.23901850749137       -3.65633793317690       -4.70959137051598
H            1.67764002314302       -3.32439105576835       -5.50290677445090
H            2.24935740809213       -5.00038282207886       -5.31992324655431
C           -5.63929809230697       -0.92695029628291       -5.93396746759434
C           -4.89741992147926       -1.42640072344995       -7.05025561677613
N           -4.30184330727118       -1.82699594636210       -7.94267339768648
H           -4.97294326053899       -0.81638862750972       -5.07928337059736
H           -6.06765602555806        0.04184067482418       -6.18786618416459
H           -6.43780775917424       -1.62497102378822       -5.68610571121883
C            4.40922963203300        1.07633251469784       -5.93829920444072
C            5.14277329195683        0.54367920943907       -4.83268978898064
N            5.72762769340307        0.11401465692907       -3.94669234550996
H            3.34391122481711        0.91489038128522       -5.77832358979458
H            4.60598121249968        2.14458578906013       -6.02013949451694
H            4.72059691137254        0.57554095189146       -6.85426132950244
C           -1.07061787198253       -2.05358636256969       -8.62896912443927
C           -0.54498118362267       -2.08122792126071       -7.30127915235151
N           -0.13303084000776       -2.10739870287758       -6.23221767322290
H           -2.16026182556775       -2.01576048222427       -8.57922699816454
H           -0.69831666870089       -1.17391463543610       -9.15173942381951
H           -0.75867688015673       -2.95135657117245       -9.16083344986326
