21
Ferrocene_0_gas.log	Energy: -1035873.6533677
C         -1.64771       -0.47374       -1.11824
H         -1.63214       -0.89476       -2.11257
C         -1.64886        0.91667       -0.79605
H         -1.63361        1.73234       -1.50391
C         -1.65014        1.03989        0.62572
H         -1.63649        1.96521        1.18283
C         -1.64818       -1.20954        0.10446
H         -1.63321       -2.28575        0.19782
C         -1.65012       -0.27422        1.18230
H         -1.63615       -0.51817        2.23419
C          1.64840       -0.55881       -1.07783
H          1.63325       -1.05571       -2.03653
C          1.64898        0.85223       -0.86439
H          1.63487        1.61035       -1.63349
C          1.64969        1.08549        0.54360
H          1.63603        2.05097        1.02684
C          1.64847       -1.19781        0.19824
H          1.63322       -2.26329        0.37463
C          1.64923       -0.18172        1.20036
H          1.63583       -0.34346        2.26811
Fe        -0.00001        0.00045        0.00050
