173
 energy: -266.428294162193 gnorm: 0.000404029816 xtb: 6.6.0 (conda-forge)
C           -2.65477000000193        3.04075000009421        0.68277000004596
H           -3.32081623989324        3.84032694106751        0.94225934964552
C           -2.08596578984016        2.81456719432043       -0.58852537402814
H           -2.23405678205040        3.42044009134037       -1.46414655231273
C           -1.22869861921784        1.68182827029592       -0.48782202940841
C           -2.15139880237029        2.06703144845115        1.57052082713643
H           -2.35133331295734        2.02022117476779        2.62463819727552
C           -1.27232207999934        1.22859058297100        0.85708441839600
H           -0.70301380785803        0.41251255847821        1.26153490896501
C           -5.18620845873279        1.27773413266256       -0.55849717354284
H           -5.82939155064399        2.12078968954053       -0.38972107370652
C           -4.41344364122105        1.03339397784621       -1.71564980825958
H           -4.37226280122164        1.65608439389419       -2.59004189618561
C           -3.76060719841829       -0.20867375147095       -1.54683603873893
H           -3.12095771962439       -0.69818606597968       -2.25664039133135
C           -5.00900129955682        0.18800323808412        0.32189765359509
H           -5.51467065607458        0.05737307519361        1.26149473023687
C           -4.13552121817864       -0.73267833288937       -0.29610045614635
H           -3.83097232413079       -1.68824319013360        0.08645329160692
Fe          -3.17679483073924        1.16721122899685       -0.08998879270988
C           -0.48255305783974        1.05507573564919       -1.61464177798562
H           -1.01958515320439        1.23364547287679       -2.54724573999516
H           -0.43039649687284       -0.02013909492388       -1.45145464906605
N            0.91762282809570        1.56736398711736       -1.79226558609689
C            1.69070784899332        1.30668104909528       -0.53594155412723
H            1.20836696741270        1.86858007434558        0.26643914708244
H            1.60275159498913        0.23998402923011       -0.32148123303056
C            0.87857362344592        3.01077212339381       -2.08647404068885
H            1.88920932927586        3.37882401666942       -2.24679234611660
H            0.28678236487100        3.18062891624774       -2.98306915922477
H            0.42448850264703        3.54336444754339       -1.25328075468305
C            1.52758692708500        0.85214745047032       -2.92565975774589
H            0.93596165982278        1.01055683398813       -3.82459610969475
H            2.53953114046102        1.21416870161080       -3.09154111231903
H            1.56236526377149       -0.21400456508285       -2.70985254167534
P           -0.60864164138229       -2.94104295155574       -0.65409918693483
F           -1.16036547893075       -2.34916665359880       -2.05574922001677
F            0.75655759791314       -2.08149014897929       -0.84598272549211
F            0.06478042606487       -4.18459051326801       -1.45895083728798
F           -0.03694469113117       -3.54603614274046        0.73883992318096
F           -1.96742894893649       -3.80599371235487       -0.47019508331832
F           -1.27045364800778       -1.71049950588919        0.14562040107557
C            3.14757266321899        1.68222709567478       -0.61717763353905
C            4.09344148842519        0.73980633086669       -1.00803502862469
C            3.57206968042081        2.95995387141157       -0.26625941795892
C            5.43494613768272        1.07463940497862       -1.06696395853155
H            3.78299977183307       -0.26590857734014       -1.25007926300160
C            4.91372403618708        3.29477002151510       -0.33140185197050
H            2.85782633535519        3.69158472911680        0.08003124659640
C            5.84704860142764        2.35470669441913       -0.73512633314527
H            6.15700654707166        0.33130177328796       -1.36866671831790
H            5.23348153962061        4.28813622231516       -0.05605746509177
H            6.89405252794193        2.61400976710685       -0.77391315670042
C            1.54330210539890        1.46754523113755        7.45002248777368
C            1.67059297029224        2.70290887609809        8.16239996088053
N            1.77383798787206        3.69112359126592        8.73186353099951
H            0.80893189070674        0.83463176024722        7.94628164404037
H            1.21779681748687        1.66654845548115        6.42993973503492
H            2.50532041920859        0.95719907428657        7.42969997918743
C           -3.24760252569439       -0.86503849373619        2.90517620417177
C           -2.46129168846398       -1.15184836266576        4.06413711343520
N           -1.83998936797140       -1.38307048312448        4.99836572705098
H           -4.02803653628376       -1.61683372538702        2.80687763520445
H           -3.69912381352562        0.12009887881652        2.99535776116308
H           -2.62139427535215       -0.87720042446502        2.01508817263612
C            1.29657717748906        7.35180198104737        5.46009960520795
C            1.00550916521478        6.29904380079532        4.53359940216431
N            0.77308372862427        5.46108786281237        3.78894944803229
H            2.32287231783710        7.25235192402184        5.81061050280684
H            1.17508230364989        8.31452311729928        4.96524250136238
H            0.61839111752496        7.28815446326173        6.30994562430474
C            2.37599520854388       -3.56456625754375        3.40527750110739
C            2.86847617952569       -2.22116642265989        3.45293884748862
N            3.25987821168826       -1.14604431167316        3.49349886572397
H            1.87584831292745       -3.80140801189084        4.34297731886328
H            1.66852510978154       -3.65747505509342        2.58200120426374
H            3.20620174479947       -4.25208652516316        3.25147864372685
C           -7.28743415600579        3.07509129776128        6.46411031480853
C           -6.80168964671356        3.41397204526455        5.15931220365529
N           -6.41406556189661        3.68540602959015        4.11706549648069
H           -6.69913841531286        3.59737282912024        7.21757639881420
H           -8.33274243680480        3.36909678928666        6.55053451982641
H           -7.19851801543970        2.00016873918990        6.61696413444480
C            5.60511763259058        3.78579730074778        4.65539495175445
C            6.89709926953401        3.25278504166859        4.33971243836760
N            7.93124042596229        2.83149087983236        4.08681388926786
H            5.51925666808056        3.91334810721631        5.73377413246515
H            5.48315451093854        4.75031232999617        4.16436322843117
H            4.83457414937154        3.09936261127332        4.30722711873796
C           -2.18712620864450       -6.05531354755928        2.36120225054662
C           -1.61188816958543       -7.24240185949809        1.80441804243140
N           -1.15405022098529       -8.18990671115150        1.35295655453950
H           -1.83845374533759       -5.92212224442756        3.38394412300133
H           -1.88075729895370       -5.20051979368048        1.75915504179774
H           -3.27303972531504       -6.13530520922295        2.35160856897675
C           -3.79449046829559        8.35598016968082        3.15934787943323
C           -2.75803850584250        9.02682374474623        2.43252264480559
N           -1.92738013472599        9.56311896437375        1.85535973687452
H           -3.48641508514906        7.33276002032311        3.37026256913783
H           -3.97802412972869        8.88112171530595        4.09583148680775
H           -4.70687567188562        8.34759851363756        2.56490615760962
C            8.04230356789419       -2.42974447020802        2.54869249233552
C            7.82101472468911       -3.54113596447695        3.42469810592319
N            7.64361472444589       -4.43080740792071        4.12359114493067
H            7.80201609649262       -1.50411841932069        3.06965921679128
H            9.08657589505518       -2.41350072216556        2.24002291504974
H            7.40303829213768       -2.52856414005744        1.67262552798478
C           -8.78328911955523       -3.18016876548844       -0.43465443031915
C           -8.02153746542682       -3.85940970446741        0.57051486174771
N           -7.41182737728294       -4.39923112593914        1.37548904042177
H           -9.18435437267089       -2.25583545074641       -0.02125150659203
H           -8.13957175781051       -2.94969450005746       -1.28249820127772
H           -9.60176992748021       -3.81956827248323       -0.76250695298593
C            2.60580246282188        8.57749065238096       -0.17188902840985
C            3.60432794395000        8.52042907863894        0.85361312708962
N            4.40290486526489        8.46972763455069        1.67275739197084
H            1.80591137556843        7.87693987331957        0.06278082071623
H            2.19740063819101        9.58587829499800       -0.22242517319350
H            3.05233876369345        8.31593889029443       -1.13021127893996
C            2.84527726511171       -6.40501949316245       -1.24315664600267
C            3.90471150470675       -5.44223244599046       -1.21897592422161
N            4.75068722759631       -4.67111506422410       -1.19663410997998
H            2.92047068590958       -7.05490340014660       -0.37258374062965
H            1.88896989773926       -5.88348768955736       -1.22378609056657
H            2.91477807786653       -7.00127476876735       -2.15152617409622
C           -6.25141807518073        6.58605788838481       -1.90648601557669
C           -6.20773122591278        8.01601031038298       -1.82567204195420
N           -6.17378839043892        9.15836355939808       -1.75587024900923
H           -6.56194837184727        6.18015924817934       -0.94475970403004
H           -6.96471756594750        6.28935059692870       -2.67433123801655
H           -5.26296066068826        6.20790417488710       -2.16201997207030
C            8.82491933990836        3.48407549817223       -5.18706990339393
C           10.12226760550188        3.58805982943763       -5.78729687159140
N           11.15887111390970        3.67219997728138       -6.26604814154483
H            8.69985708833956        4.28084755214482       -4.45517306802543
H            8.06091797395776        3.57235468885658       -5.95819645006343
H            8.73079564993311        2.51736311526414       -4.69446585717042
C           -4.03821628105051       -5.91407604599213       -2.41425027698176
C           -4.61262783469120       -5.12191036971782       -3.45881180826736
N           -5.06951397024467       -4.48750572278251       -4.29540420891977
H           -3.39367167173608       -5.28475389657304       -1.80185530176670
H           -4.82829668252986       -6.33402850715684       -1.79389897531079
H           -3.44818289391587       -6.72120987409260       -2.84596243800679
C           -1.59624984191426        9.85977922346093       -3.63762918688486
C           -1.27650862131234        8.46608490735554       -3.56370665297665
N           -1.01680841743819        7.35260986685579       -3.50485441830489
H           -1.81045157484530       10.23685048321139       -2.63834593137150
H           -0.75327510634463       10.40501087354762       -4.06046255781798
H           -2.47212633963973        9.99949233629601       -4.27003418156081
C            5.54252324114395       -2.42523598521666       -5.92172058454365
C            5.28978312417569       -1.01823230956115       -5.91872737209423
N            5.08407056873015        0.10887642240815       -5.91344173103747
H            6.13352247194319       -2.69204277874804       -5.04670893011455
H            4.59324050823416       -2.96121193748202       -5.89028504197654
H            6.08451644536776       -2.69869481405277       -6.82569254689615
C           -4.79105608300323       -0.43539786121579       -7.31078939520514
C           -3.58087102837280        0.23587807222225       -6.94439251910127
N           -2.61644556718332        0.77663271528480       -6.64730083196884
H           -5.43458144658022       -0.52244236054902       -6.43627439971430
H           -5.30207985398777        0.13331994427628       -8.08660893265173
H           -4.55661471920947       -1.43139353200768       -7.68422507829628
C            1.63388738448847        4.29006900089335       -7.39254403251012
C            1.68533282439441        4.91247690120828       -8.68245640672998
N            1.72434678610793        5.41430485519733       -9.71094002224655
H            1.55830098096260        5.05978113547288       -6.62568534753616
H            0.76324517105672        3.63770932419271       -7.34442266875635
H            2.53797315051351        3.70251581289391       -7.23788881744121
C            0.02622376722992       -3.91291119587425       -5.17501554251774
C            1.42357669681334       -3.91667607761067       -5.47768781742220
N            2.54196500386601       -3.91596468547972       -5.72311677601830
H           -0.10956278437089       -3.84890787495014       -4.09567563299532
H           -0.44646632675627       -3.05337982027747       -5.64741018577812
H           -0.43085544202740       -4.82951411215974       -5.54429824129503
