173
 energy: -266.426272998644 gnorm: 0.000917651121 xtb: 6.6.0 (conda-forge)
C           -2.65476999995545        3.04074999966304        0.68276999987060
H           -3.30452967859905        3.89422310850799        0.71592715776979
C           -2.04991700500626        2.50634637326525       -0.47520218499301
H           -2.14581462482045        2.89208341173650       -1.47393313128509
C           -1.24122411644918        1.40439558352409       -0.07835044216677
C           -2.22442000650033        2.28449460059728        1.79405098407519
H           -2.47398876362701        2.47917887807754        2.82016486371210
C           -1.35392954686211        1.27513460022909        1.33222683927719
H           -0.83904150396355        0.55575662001408        1.94088955890706
C           -5.25749629220061        1.01094995107286        0.05811634956133
H           -5.93706166242465        1.83787246216929        0.14858274899654
C           -4.56280524640089        0.62468377125528       -1.10982232352676
H           -4.62343466531317        1.10350651167096       -2.06924997714686
C           -3.82109773044975       -0.53958416937645       -0.80858057403135
H           -3.21048502291564       -1.10531326917681       -1.48677000266481
C           -4.94586310328312        0.08439794248793        1.07811812676995
H           -5.35928163211439        0.08399779437787        2.07016121641604
C           -4.06277387338425       -0.87628936046643        0.53798643454734
H           -3.66970264169275       -1.74374082127590        1.03435017346190
Fe          -3.21022628237417        1.05066506008506        0.37546124171876
C           -0.49663625340308        0.50133994398989       -1.00114994886642
H           -0.94532823804053        0.55292315081102       -1.99449103714843
H           -0.58038385487002       -0.52374719440733       -0.64182282473299
N            0.96206615614872        0.82306635777652       -1.14393642424921
C            1.61374252175927        0.72338261168622        0.20216936139122
H            1.22353414747124        1.53874229649761        0.81417265538769
H            1.30438886451587       -0.22802339511100        0.63893961353250
C            1.11452339515555        2.18340951398387       -1.69011055955687
H            2.17093582829243        2.42089145139690       -1.78724356576612
H            0.64615193142041        2.23785198374788       -2.67046437655386
H            0.63702798927806        2.90143809614058       -1.02604876450261
C            1.55657348531877       -0.14930625485463       -2.07666453976689
H            1.04301420385424       -0.10116062437505       -3.03399073969964
H            2.61095495009804        0.07454131522270       -2.22087242280995
H            1.45590918322973       -1.15510182397564       -1.67358680379389
P           -0.72924725106686       -3.25470911086042        0.76164111448174
F           -1.40946325777465       -2.82491322184738       -0.64208321913279
F            0.68086021663220       -2.62134936533012        0.25337274334655
F           -0.31332348185552       -4.68630917214851        0.11187055343712
F           -0.02859630984628       -3.69659407225160        2.15398120085241
F           -2.13156288945049       -3.88952031336956        1.26314648440578
F           -1.12633334522833       -1.82898301421922        1.40234097120370
C            3.11903659691978        0.77779227871589        0.16837012932256
C            3.85126984165296       -0.40466266771483        0.11777661842108
C            3.79675688271657        1.99113973873797        0.22671817186318
C            5.23430439419221       -0.37313897533929        0.10011884837548
H            3.33574016819345       -1.35370541173116        0.10421603760916
C            5.18087872033595        2.02096216963735        0.20504501521888
H            3.24789813151214        2.91660766883314        0.30996408221144
C            5.90174796194656        0.84050277394001        0.13594344392682
H            5.78756220343363       -1.29889935461368        0.06210687036542
H            5.69585524671484        2.96775649547821        0.25228870061436
H            6.98043988925635        0.86336877986350        0.12295902389818
C            3.84437214069676        1.21254018788221        5.46787746376900
C            4.20282559369841        2.23372762941858        6.40507441012128
N            4.48932268187485        3.05258747545473        7.15257941453751
H            3.53554106382407        0.31771186167410        6.00621787512529
H            3.01915620925707        1.56216187890215        4.84990535508905
H            4.70055552562681        0.97849179631723        4.83661741815376
C           -3.05654787345236       -0.40830213379082        3.82923125633192
C           -1.87959336836559       -0.53115464523032        4.63175842149595
N           -0.93697783259318       -0.62228863967662        5.27624541474219
H           -3.74444818944317       -1.21520288625872        4.07381640472396
H           -3.53423184652397        0.54945292324772        4.02170184644676
H           -2.78717939770914       -0.46747229640207        2.77534106452302
C            2.69126184451904        7.51385886583568        4.96204075195418
C            2.18276909400636        6.47269243190198        4.12026255692577
N            1.76955646865592        5.64431018592369        3.44687648142076
H            3.02225077061838        7.08705870204542        5.90824791182330
H            3.53046666944197        8.00158790577024        4.46740256547621
H            1.90597161849491        8.24621720466036        5.14646367056743
C            2.17364444091823       -4.61385172440846        4.70737157651240
C            3.41686754141141       -4.07176307103514        4.25016578833822
N            4.41286714057114       -3.64064583002766        3.88480180011436
H            1.92309485664752       -4.18569131210918        5.67664103158878
H            1.39079819257324       -4.36683127385339        3.99130407216091
H            2.25637949235627       -5.69635458102804        4.79416075418770
C           -9.22661374900101        2.22575612974312        7.56192336286435
C           -8.25939674285768        1.96410863225079        6.53732884812564
N           -7.48864254682786        1.75619333938595        5.71697559053493
H           -8.75170247199398        2.76908300142460        8.37784833717736
H          -10.03769122771173        2.82467115290781        7.14975193903681
H           -9.62373152388939        1.28284482735131        7.93567045032965
C            7.95657586330012        5.17966222199165        4.29266998729255
C            8.45576517297040        3.87750797086449        3.96648823205748
N            8.85281424978913        2.83674934286163        3.70155191145207
H            8.05961553771480        5.34887103079283        5.36371246214706
H            8.52138081562723        5.93376790056997        3.74614500305574
H            6.90538991589140        5.24184749325051        4.01525736775092
C           -2.62270226066426       -7.10734231266408        2.64671043073113
C           -1.44581964531964       -7.91753473054708        2.55520504687562
N           -0.50558036902010       -8.56763203816623        2.48711782902138
H           -2.90983120636659       -6.99937633047757        3.69148534657262
H           -2.41607874108487       -6.12441080566274        2.22494782036666
H           -3.43342221260835       -7.57546516565765        2.09081543836407
C           -2.43371179844631        8.51470195793034        1.87578638952173
C           -1.24618540978210        9.26060301322545        1.58387812042244
N           -0.29733924641805        9.85663766278488        1.34799573538534
H           -2.17238160930759        7.63051737142294        2.45544639809839
H           -3.12127779462056        9.13661676546390        2.44746429742231
H           -2.90873044794571        8.21253243609825        0.94357424969330
C            9.38391799777713       -2.42413189643330        3.53588138179614
C           10.41678758234391       -3.35811257215957        3.87220126907224
N           11.24362362853774       -4.10473579405772        4.13714383826912
H            8.77622041132481       -2.22066824445428        4.41647025690634
H            9.83338940765185       -1.49687591432748        3.18341693788564
H            8.75479341755000       -2.84706955877838        2.75416808916713
C           -8.08683610828096       -3.83908312059651       -0.57033438401144
C           -7.44407286838650       -5.11215087778261       -0.43469014884655
N           -6.93804123712216       -6.13333191873984       -0.32417876062458
H           -8.08784125773119       -3.32975537284587        0.39225487933043
H           -7.54644773653627       -3.23651470130361       -1.29875164130304
H           -9.11223088360474       -3.98659779023885       -0.90675413730040
C            3.54498370573792        7.59867639742946       -1.13434705762208
C            4.66976634419592        7.55017024170703       -0.24955680011549
N            5.57042227306185        7.51323133630708        0.45662260682146
H            2.68825992640296        7.12406293435110       -0.65881006171117
H            3.30441179637292        8.63798386094662       -1.35411502712702
H            3.78557918300377        7.07503635868419       -2.05863890217517
C            2.78832821509425       -6.26588480029597       -0.57814815740592
C            3.11091498042143       -5.61102292724856       -1.80925102379919
N            3.36592806379128       -5.08175033349346       -2.79212124969322
H            3.62271440718451       -6.17310951598170        0.11526062195068
H            1.90512573451608       -5.79644627725776       -0.14590485599617
H            2.58218197866390       -7.31910060123019       -0.76190049548478
C           -5.93836838069381        5.63465985546105       -3.43157181160425
C           -5.72571525682003        6.98316472904048       -3.00025697210262
N           -5.55137036945103        8.06025306522864       -2.65221999521627
H           -6.37388383557705        5.05651613886846       -2.61825759843041
H           -6.61701821336275        5.62750711008371       -4.28337877921596
H           -4.98727473403339        5.19311682182203       -3.72529235952527
C            9.23146199655214        4.57923979291285       -2.40735263895958
C           10.37353981298075        4.90027921016036       -3.21127669268930
N           11.28668929868753        5.15779977347248       -3.85217894144122
H            9.53939885120358        3.93953688961435       -1.58145927350027
H            8.79711987905074        5.49685625411918       -2.01310249375424
H            8.49328293732981        4.06029143706407       -3.01700081676228
C           -2.06981093443901       -5.94099746551376       -2.72711520985514
C           -2.42328756639349       -5.05047036835634       -3.78995740482647
N           -2.70246122620194       -4.34039820469711       -4.64377131346915
H           -1.67214970804189       -5.36523830874708       -1.89217722817797
H           -2.95254578033653       -6.48777307960885       -2.39924493944205
H           -1.31208574408576       -6.64198418472617       -3.07390810364911
C           -0.86390900316386        8.97892302908543       -4.11854883791116
C           -0.68984219076563        7.56482410304927       -3.97389865945205
N           -0.54439047660633        6.43527954194785       -3.85752694213558
H           -1.03172468481334        9.42548791142191       -3.13928491506198
H            0.02935934881752        9.41154182111855       -4.56750910700827
H           -1.72398353707084        9.17688870207534       -4.75683184970618
C            5.21227257791098       -1.49188188896653       -6.03009733789539
C            5.15199073359806       -1.20919025429271       -7.43283614602144
N            5.09890732755363       -0.98270798659149       -8.55411348205678
H            5.51747553153345       -0.59560125347003       -5.49199310238930
H            4.23080106356064       -1.81125989306470       -5.68309851701831
H            5.93349857507086       -2.28805876349215       -5.85047035395309
C           -5.48645832263960       -0.71713843379398       -6.83483709582924
C           -6.05455718909723        0.55093064709666       -6.48745587298379
N           -6.50514900128957        1.56550731143492       -6.20737132769630
H           -5.89530942232493       -1.49034057734992       -6.18583457760687
H           -5.72366862817251       -0.95049006694735       -7.87186740373354
H           -4.40555713102138       -0.67707198122864       -6.70827233090038
C            3.03510367477586        3.96037910707979       -7.26463089947492
C            3.86697245707439        3.88566093033556       -6.10180864257650
N            4.52611023383580        3.82255759132541       -5.16755748967835
H            1.99129623699148        4.01997853808686       -6.95903828347147
H            3.29722696572163        4.84501136874494       -7.84352794597266
H            3.18406722183109        3.07077246753882       -7.87524010184977
C           -0.04161056563404       -2.20374994315782       -8.82132343213361
C            0.04776809144066       -1.09790724421739       -7.91600878749144
N            0.11567945091998       -0.21353972089803       -7.19205527913594
H           -0.27948211073654       -3.10859842042508       -8.26330193727794
H           -0.82434962303324       -2.01190025322973       -9.55410495884750
H            0.91109501037286       -2.33224630052428       -9.33335712712052
