21
 energy: -45.242377113138 gnorm: 0.000250291913 xtb: 6.6.0 (conda-forge)
C            0.98490000000003       -0.90610000000004       -0.14629999999980
C            1.91903863836525       -0.89349963098966        1.00075367049881
O            2.37828099583855        0.13937281651925        1.46072860544946
O            2.16841800936307       -2.07021231894310        1.52520902758251
C           -0.46406454193530       -0.58661869715108        0.47854261218138
C           -1.33909100659183       -0.04050573132402       -0.69724849385342
C           -1.10233901667888        1.43697243215532       -0.77076921505472
O           -0.01807283305171        1.97003142642236       -0.62203998829462
O           -2.19379528532376        2.12966371481744       -0.98456650109574
C           -0.96507126177710       -1.97927023235814        0.89952557682443
O           -0.81889632205181       -2.43557437874057        2.01097311888228
O           -1.56407069572134       -2.65403202708468       -0.06974485745986
O           -0.43969725686588        0.24684669686591        1.51784132034715
H            0.96782806917312       -1.87089002974699       -0.64625659149876
H            1.23466027020990       -0.09591510320306       -0.82691164411580
H            2.71821621800053       -2.00604139726705        2.33202924729390
H           -2.39408669096756       -0.20568233359930       -0.48714750620804
H           -1.07975382622568       -0.52419976465331       -1.63717614254637
H           -2.03456058501264        3.09576511354281       -1.01784636359057
H           -1.86526146114567       -3.53915818439302        0.22304415023966
Na           0.92372603649862        1.56845365840456        1.21765186057190
