173
 energy: -266.312173455099 gnorm: 0.000635910156 xtb: 6.6.0 (conda-forge)
C           -2.70160680096472        3.29533393972554        0.87315769543005
H           -3.38958154109850        4.11443136659383        0.97504882635972
C           -2.14998926562113        2.80426298126884       -0.32974246790584
H           -2.31735024583859        3.17998741693521       -1.32226469380597
C           -1.26140056237646        1.75086147950052       -0.00503045676701
C           -2.15616905340849        2.55159017692579        1.93933197142415
H           -2.36688421195198        2.70972403172496        2.97930931574338
C           -1.25883576802384        1.60873316360010        1.40252020022994
H           -0.66693391989236        0.91646788041082        1.96793801409550
C           -5.23873705023112        1.54957500851273        0.33697117715700
H           -5.77239617587899        2.48065336929376        0.40216058688634
C           -4.65894282047010        0.98326054970475       -0.82156185663861
H           -4.66565806198864        1.39492034818203       -1.81251389326662
C           -4.13216627694006       -0.27445203315322       -0.46659735113545
H           -3.62592267906461       -0.94776838702227       -1.12838553221069
C           -5.05220950917777        0.64463602811273        1.40285678412419
H           -5.39779847937117        0.78464829204550        2.41054312292660
C           -4.39487949839619       -0.49288547002960        0.89550005317352
H           -4.15798944560204       -1.38458713964595        1.44162064987057
Fe          -3.22165349686691        1.32601370914593        0.59674034373469
C           -0.57829933349951        0.90019276063518       -1.01488710150958
H           -1.04464578989647        1.06802357239167       -1.98676800583953
H           -0.70525061374198       -0.14223499745361       -0.74834886874007
N            0.88552757958965        1.15049200616742       -1.16946448061263
C            1.56580108013108        0.97800578032877        0.14873493745408
H            1.23709078342706        1.79995618187994        0.78735047288367
H            1.22664334953300        0.02942012590005        0.56486919094939
C            1.08840261823277        2.51586244588084       -1.66928318179017
H            2.14753515418391        2.68536667981360       -1.84453139806793
H            0.53994140106755        2.65072648292408       -2.59919530149172
H            0.72890499106634        3.22946062359779       -0.93136977237108
C            1.40723313984072        0.18447239546408       -2.14471610296646
H            0.85467696063328        0.27757237190802       -3.07653060413186
H            2.45879035120823        0.38734712683478       -2.33422466533283
H            1.29657897047622       -0.82873553658449       -1.76328521692541
P           -1.21664578477893       -2.59781135566297        0.47689880238295
F           -1.54866076950725       -2.18705410847785       -1.06191127864084
F            0.28533496701543       -2.00590543314962        0.29708188251972
F           -0.70269512991923       -4.03676839301302       -0.03759296039637
F           -0.89790840193914       -2.98130098207239        2.00368102261176
F           -2.71786645272450       -3.16812436220936        0.64783027560718
F           -1.71487759886332       -1.11951855521603        0.95066933424376
C            3.06797305479519        0.97334069838188        0.06464298001296
C            3.75244806185505       -0.22667554209113       -0.09774850562833
C            3.79040223366139        2.15432042938016        0.18213195829809
C            5.13266276365665       -0.24024277826525       -0.16379266712688
H            3.20097683103192       -1.15194505973789       -0.15856355240607
C            5.17219601349817        2.13788504817922        0.12079156791404
H            3.27418904089688        3.08894310304160        0.34182002024636
C            5.84553622062285        0.94168964016264       -0.05390251724891
H            5.65813026479913       -1.17344839909005       -0.29392134053851
H            5.71551616336249        3.06624687662151        0.21433958172907
H            6.92449511638121        0.91675902767325       -0.08475225509289
C            2.91601609538336        0.59906844093531        3.80968903149804
C            2.92394235463124        1.95624918044832        4.24197529652175
N            2.92180760384799        3.04503540320608        4.59933572674054
H            3.58624634710701        0.01483876784376        4.43770336874327
H            1.90240615781774        0.20192956116474        3.88842462635739
H            3.26024502507183        0.53945413925815        2.77804816846352
C           -2.63415896002411       -0.26074542716564        3.79792213772754
C           -1.23676216528065       -0.39799623085292        4.03424211307668
N           -0.11100289653067       -0.49843003791480        4.22511031592214
H           -3.12384341234820       -1.21377105452862        3.98519516276966
H           -3.05222779784094        0.50794019840668        4.44420615360011
H           -2.79614177257737        0.03425820063740        2.75901215131503
C            2.06695156250626        5.53513007755861        2.91297304487025
C            1.45546209134522        4.73863020024588        1.90325031297637
N            0.97185632098127        4.09494021078121        1.08833991752062
H            2.34810360250800        4.87961567852988        3.73983749664156
H            2.95638051062238        6.00475503357050        2.49355972432545
H            1.37271838785025        6.29849952436985        3.25951344546148
C            1.68682639351210       -3.23923495599334        3.78818765636876
C            2.84767251009610       -2.81240372881473        3.08486722723967
N            3.78245597154743       -2.47759154355868        2.51159909819697
H            1.94943387845050       -3.50716152858625        4.81046699605434
H            0.94969433877070       -2.43559749670723        3.79521962638400
H            1.25651461099097       -4.10480621785649        3.28075715647886
C           -6.45618426175567        3.34756270046103        5.68345569907098
C           -5.39857134603491        2.77866337824147        4.89983749001569
N           -4.55922256464552        2.32097552184334        4.27326932356322
H           -6.05609807676160        3.70490871859132        6.63153402628704
H           -6.90383065399977        4.18004640799765        5.14221599807390
H           -7.21524658451136        2.58967851500350        5.87372565635347
C            5.69444136636772        4.27634159525851        3.41800995236573
C            5.96572886833092        2.87820147899989        3.31445982190172
N            6.18244252119241        1.75690176037002        3.24057746068595
H            4.92592351366055        4.42329330692737        4.17578425820270
H            6.60150447649583        4.80784250008629        3.70241335170601
H            5.33466158211362        4.65085944864963        2.45903370662207
C           -1.85749255670316       -6.29221048367671        1.61120753182009
C           -0.48551047881992       -6.09912302153726        1.95650122032838
N            0.61337636888054       -5.94829895397016        2.24135720383423
H           -2.25578863204710       -7.16141311442229        2.13249015043587
H           -2.41514123199038       -5.39919175352506        1.88909776616608
H           -1.94539045266997       -6.42906705845046        0.53270451717118
C           -1.08242270740510        6.41148577459234        0.05531126836819
C            0.09489300974714        7.11505059497690       -0.34534705144567
N            1.02922928199886        7.68839889222532       -0.67537937344882
H           -0.82783523448831        5.37554999132256        0.27846632371668
H           -1.50582888679365        6.88015098398213        0.94257788791519
H           -1.81391489035004        6.43855900776368       -0.75339115267719
C            6.83498204679089       -1.34039172392813        2.68344330284101
C            7.68929089404090       -1.51687415471346        1.55219307696943
N            8.37437775186648       -1.65450259354938        0.64442954836834
H            7.29538870591438       -1.79065119805273        3.56202797205487
H            6.68050143838777       -0.27518169932938        2.85635915126939
H            5.86908452795446       -1.81018914255075        2.49603017985280
C           -4.11986347579581       -3.92162304416157       -2.07107130264928
C           -3.41203913631191       -5.13590547540994       -1.80113735943747
N           -2.85371141812230       -6.11328646432502       -1.59519008725580
H           -5.04979193774906       -4.14470058955285       -2.59236691488823
H           -4.33211315131799       -3.42196438802503       -1.12767506135678
H           -3.49677797756071       -3.26978525053233       -2.68204925092828
C            3.61562644846401        6.03428979338682       -1.65816783665057
C            4.10350741041610        5.78735844010661       -0.34350343140032
N            4.50003791838350        5.59670106641974        0.71462201992149
H            2.77049130530389        5.37973236326043       -1.86907099697711
H            3.27778894527548        7.06761615071174       -1.72182951009738
H            4.41134281188114        5.85087694283323       -2.38173029948888
C            2.66486036012935       -4.53702744925992        0.03293273698974
C            2.54172478435752       -3.70863237507367       -1.11508945251721
N            2.45578192278534       -3.04261659054945       -2.04492640563690
H            3.32266477415299       -4.05386335781876        0.75521182732977
H            1.68267942536939       -4.67739532208680        0.48503574058334
H            3.07328617191760       -5.50613414052992       -0.24904512936943
C           -4.90471881816524        4.30770502853765       -2.09094560230939
C           -4.00649800777409        5.40204995630707       -2.23493135410751
N           -3.27472275343664        6.27828699165775       -2.33769344628047
H           -4.69998245992554        3.79176199089336       -1.15307733580933
H           -5.93252298700303        4.66693784084623       -2.10397161354162
H           -4.75396520747409        3.60941202542186       -2.91620013340068
C            7.38854961839046        2.90939243098489       -2.63232939919490
C            6.64968144855164        4.02568985446704       -3.13267899570834
N            6.04824437802735        4.91246822732105       -3.53554551831083
H            8.08889763377374        2.56026860675974       -3.38972633852967
H            7.93527124920805        3.20155234678679       -1.73708238894396
H            6.68473066941754        2.11398960565031       -2.38517429995607
C           -0.31614676978245       -3.97001106498363       -3.40125697115481
C           -1.12723032588793       -2.99921392069413       -4.04953939646202
N           -1.78390442916393       -2.22718828538194       -4.58576381672471
H            0.67367856567295       -3.55100768815796       -3.21514867238154
H           -0.76117463998562       -4.23514900506933       -2.44322111975466
H           -0.23438277723193       -4.86073074159158       -4.02228548826297
C           -0.53475613997264        7.10926113794478       -3.76905888922588
C            0.27991511753920        5.95559339320678       -3.56639356994839
N            0.93650333859322        5.03229033193334       -3.40025240945726
H           -0.12318487843754        7.93973130074492       -3.19659378479765
H           -0.55674097044811        7.36431800383780       -4.82747596421844
H           -1.54798813106785        6.89785795104135       -3.42253003843855
C            4.18739812521767       -1.28679728625983       -4.05658042424025
C            3.32255575738054       -0.61136213414681       -4.96685028851695
N            2.62735138066135       -0.06197173495114       -5.69334884472757
H            4.70173017621038       -0.54714443663425       -3.44322507962383
H            3.59735317397192       -1.93921178484017       -3.40976386002654
H            4.91565780448195       -1.87900222575334       -4.60813316282896
C           -4.20328279555000       -0.32320124826370       -5.29287549195347
C           -4.35390075461664        0.94543522439832       -4.65682676700229
N           -4.49620793526325        1.96105390949880       -4.14875067497292
H           -5.10301974300397       -0.91574710136653       -5.13091821425120
H           -4.05105028065030       -0.18279985910283       -6.36213834259704
H           -3.34529462171221       -0.84911531175893       -4.87057830427675
C            3.32010457565626        3.39273655739608       -4.80518445282664
C            3.89079670008940        2.49845444439870       -3.85380653934300
N            4.33874382030734        1.77410907273383       -3.08690226024525
H            2.45499959281054        3.89234651713824       -4.36461059991111
H            4.06395829862970        4.13780423845303       -5.08428227052142
H            3.00921976068753        2.82539933930695       -5.68123498597299
C           -0.49696431859649        0.33293314386087       -6.20978512558163
C           -0.76922596178975        1.14036590926205       -5.06554607849403
N           -0.96701998090730        1.76837317783912       -4.12828292596801
H           -0.94786499651603       -0.64888446568005       -6.06210690593132
H           -0.89798522095984        0.80022466415845       -7.10721584103804
H            0.58493314654639        0.21593235432683       -6.30149475738666
