163
 energy: -251.557889670492 gnorm: 0.000727538148 xtb: 6.6.0 (conda-forge)
C           -3.53560999606677        0.97471000109637        0.77918000055847
H           -4.60849760680170        1.01384956899620        0.78440686305127
C           -2.66571260494946        1.88338415664194        0.13984274609439
H           -2.94652500081584        2.75369269464441       -0.42508597844850
C           -1.33075003841373        1.48108086625055        0.41905996669442
C           -2.74616808792779        0.03056955502206        1.47177983819960
H           -3.12222140536316       -0.75199963148309        2.10470298025228
C           -1.39096359802247        0.34940949393058        1.26859145076307
H           -0.55246632664471       -0.18761094376899        1.67156758505722
C           -3.77597507129042       -0.12231131350885       -2.15459524362943
H           -4.77946707181276        0.25227875307535       -2.08103400840094
C           -2.65083517760686        0.59103546783286       -2.62823788825357
H           -2.64463237822547        1.60515818750908       -2.98089517815351
C           -1.54648177640722       -0.28581744044126       -2.62419544273811
H           -0.54773186679911       -0.05022559943570       -2.93802144743872
C           -3.35411958717474       -1.43172798548771       -1.83674191792304
H           -3.98114792163318       -2.23556587007584       -1.49314938177881
C           -1.98210295362035       -1.53499586158720       -2.15674186153942
H           -1.37011064971856       -2.41294668943906       -2.06027656535351
Fe          -2.38512429475034        0.04982814551978       -0.67405561210929
C           -0.12172429695946        2.13456611676906       -0.15882515301133
H           -0.41689728489805        2.67405485414221       -1.06048222888220
H            0.60675909564771        1.37081897911525       -0.42905670309405
N            0.54204883369579        3.11280027094863        0.75648134967536
C            1.04850486567471        2.43133339295510        1.95724635068065
H            0.22142978025171        1.96712132460987        2.48892353048758
H            1.76469351157588        1.66183068945209        1.67639645175914
H            1.52815810375435        3.15896551708565        2.60942890599212
C           -0.42111114810404        4.15175070392895        1.15722673151416
H            0.07566199452950        4.87147588533986        1.80354894538258
H           -0.80610069763663        4.64480116991268        0.26695902335562
H           -1.24520280497691        3.69210160921365        1.69709143257376
C            1.66298436589171        3.73934545824160        0.04047459954084
H            1.29434680643148        4.30887368811753       -0.80993812057807
H            2.19304386214755        4.41266902920617        0.70826932181328
H            2.35002448066761        2.97409248305270       -0.31408015509932
P            1.74156368765374       -1.50625933368349       -0.73606021754380
F            1.25052299353935       -2.66367990833569       -1.76060237678501
F            1.85845578666014       -0.45460818249598       -1.96042108470215
F            3.28596157220604       -1.95723742450995       -0.98062392268470
F            2.24648840826605       -0.36042415192998        0.29425466419217
F            1.63948583862861       -2.56389790097814        0.49395961765683
F            0.21626771940726       -1.06124214894278       -0.48187284995999
C            0.62848023125617        0.10058780843788        7.04287808219930
C           -0.25429570520302       -0.87582555316686        6.48330158649577
N           -0.97152049791614       -1.65003564802222        6.03740730898830
H            1.22934443946132       -0.36109921534005        7.82493228096734
H            1.28422587534459        0.48770489749422        6.26509764036404
H            0.03682061469367        0.91383689838722        7.46743416793124
C           -3.90725354421071        1.79404920416793        8.92446547602310
C           -2.54881530146834        2.09573971777866        8.60624353858750
N           -1.45926172417223        2.33998280370830        8.34724064597449
H           -4.26891003200028        2.48351226025289        9.68571722381674
H           -4.51538182415922        1.89306701474427        8.02297330050282
H           -3.97431413502949        0.77156068628063        9.29368456672975
C            1.84971303917320        5.62982521417012        6.38370243397545
C            1.67395535201688        5.32726503824465        5.00043579993705
N            1.53251412056574        5.08974202707599        3.88846747224506
H            2.27470379119339        4.76609108011361        6.89377973247782
H            2.52266352844564        6.48094091520833        6.48579255463993
H            0.88487301568511        5.87234065662163        6.82766086230366
C            2.79991255217493       -4.25288062975843        3.36077944095933
C            3.55021985817822       -3.33283013816254        4.16024235799444
N            4.14890717665874       -2.60022865048809        4.80558775214220
H            1.87772645687476       -4.51490721331195        3.87715073403169
H            2.56058215200138       -3.78895219115834        2.40471335669860
H            3.39019162564020       -5.15133932331433        3.18737441033301
C           -5.00819088709108        2.41732852087381        3.57921468996515
C           -5.27669766729464        2.22912806679224        4.96823469116647
N           -5.49557266474310        2.08357803549392        6.08383113007569
H           -5.00712972451950        3.48154193819076        3.35033851277534
H           -4.03865906088655        1.98645428100120        3.33300295735132
H           -5.77714579858985        1.91656626565574        2.98953734952270
C            3.73799161496525        6.56724674523890        1.78807610992263
C            4.02967461312377        7.86669209266575        2.30785276645457
N            4.24505601425575        8.90884735726997        2.73343768854779
H            3.01306474443449        6.08118818792709        2.44245822271888
H            3.32514005138767        6.66475939667361        0.78223374972758
H            4.65026587513186        5.97351277468534        1.75104570732667
C           -1.78599655320349       -3.12420407862954        0.79449125104007
C           -2.64204150045033       -4.14969488436152        0.29365498781351
N           -3.34316174192226       -4.96379609610244       -0.10616750432737
H           -1.85108335630552       -3.08706711060338        1.87938859615538
H           -0.75702105438558       -3.32774475025140        0.50688493858879
H           -2.07123447764800       -2.15675827021235        0.36904947786179
C           -1.02394460667802        9.75221677495163        0.56686087530857
C           -0.60690891840687       10.01991048557032       -0.77547292942282
N           -0.27366939315628       10.22775389693049       -1.85135902642098
H           -1.61974543165754       10.58632295202015        0.93527350375946
H           -1.61926216715603        8.84048901899569        0.58440217782088
H           -0.14504944446635        9.62651374325059        1.19804509710676
C            6.42526657247393       -0.84524087459828        0.36655783342499
C            6.34252830558025        0.55327714176375        0.65929145786924
N            6.27705062625539        1.67151676667592        0.89634573002394
H            6.67796857203871       -1.39317528847992        1.27295822750451
H            5.46345275592670       -1.19277345767762       -0.00962279520453
H            7.18960727769674       -1.01585949978637       -0.38995134383070
C           -7.61349004153531       -1.94063144220326        2.11983232591645
C           -7.27757567793341       -0.57443778893321        1.86625653563186
N           -7.00787477169492        0.51994467751798        1.66336442448874
H           -7.46907812383572       -2.15732440413485        3.17781116700947
H           -8.65456617880607       -2.11688900518341        1.85215216030880
H           -6.97046111999043       -2.59002944751311        1.52680801194746
C            2.38989633902032        8.53247389038790       -3.09434615198082
C            2.41818220859371        7.55562565215207       -2.05405321518386
N            2.42913451052277        6.77847296822702       -1.21224812173412
H            1.56311832101375        9.22069686108407       -2.91102455772085
H            3.32861549755630        9.08457991795184       -3.10400772666269
H            2.25163327065440        8.03739508011851       -4.05429404269519
C            1.63449658525482       -6.07457811598014       -2.49360955125638
C            2.61283845740881       -6.60101333398642       -1.59082012339604
N            3.39340150312468       -7.02720582042534       -0.86936167361356
H            0.66264490632185       -6.51571795894201       -2.27714506088343
H            1.57554743011557       -4.99410944114554       -2.37039969955315
H            1.91919193677068       -6.30720883010442       -3.51843788329097
C           -7.51109380661031        4.24746494024187       -1.85339010018033
C           -6.57468534878745        4.56920583624941       -2.88514166383039
N           -5.82177193545938        4.82680763236721       -3.70879246082428
H           -7.01613613450639        4.30588366262110       -0.88497525781138
H           -8.33982323665787        4.95383186475643       -1.88204990047986
H           -7.88931337234918        3.23748134489819       -2.00582652288818
C            6.51213537572497        4.57302687185299       -3.09669353402946
C            6.47699587385916        5.51387483094836       -4.17535492816808
N            6.44572130683252        6.26817378918569       -5.03654440645224
H            6.64847351047409        5.10216766447454       -2.15483818651248
H            5.57624141384259        4.01694578575421       -3.06832604882169
H            7.33732306029498        3.87796445583199       -3.24538364442595
C           -3.45103121670647       -3.37063737428150       -4.92571863457002
C           -2.54273028763551       -4.34110657276738       -5.45640307326065
N           -1.82117573517414       -5.11897705726314       -5.88780282578705
H           -2.93828515492235       -2.75529089564139       -4.18552141617344
H           -3.81722485039829       -2.73817351714734       -5.73282633090281
H           -4.28724708548285       -3.88188894058127       -4.45120994693420
C           -2.63321376510055        5.72679049342856       -3.92739404631208
C           -2.04658657564049        5.16658337862941       -2.75447901404751
N           -1.59093278576970        4.71535669286816       -1.80509545399563
H           -3.69192172572157        5.46281055606193       -3.96054925317675
H           -2.52845887047909        6.81064400250360       -3.90483321435884
H           -2.12979123496488        5.33266144568566       -4.80858030725649
C            3.75549379731698       -1.34740813510642       -4.88460826677196
C            5.04438708782642       -0.74738087585023       -4.73151367714841
N            6.07725183200978       -0.26569081753868       -4.61588232827797
H            3.15656103038260       -1.14455568369655       -3.99772797523455
H            3.26014006690579       -0.93318658399341       -5.76342268880025
H            3.86775678109933       -2.42385439005104       -5.00402169320760
C           -4.04925020056284        2.06683706054553       -7.98565062882448
C           -3.12528537074751        1.08482530021451       -8.46286689448996
N           -2.38929369642532        0.29674288146342       -8.84844046420532
H           -4.16992649869283        1.95830825400481       -6.90881383080894
H           -3.66708722809665        3.06164842827366       -8.21091346040477
H           -5.01167722756987        1.92753367723300       -8.47657267279932
C            3.21513332792861        2.81760236290069       -7.56137260209309
C            2.41212608608718        3.43509829121981       -6.55175066464917
N            1.76341722632631        3.92971204778812       -5.74775979036662
H            3.03677457793566        3.30554716584390       -8.51843116494525
H            4.26755879710164        2.90769770768257       -7.29740975424027
H            2.94922743932322        1.76204464103779       -7.63550530776982
C            0.37684376144072       -1.48468744133814       -9.18411705432999
C            1.39478022056159       -0.86681474936206       -8.39931740063526
N            2.21483454831526       -0.36619426910192       -7.77366896433069
H           -0.54719757206028       -0.91207318880547       -9.08976307413795
H            0.68624771352773       -1.50750774371337      -10.22804534206638
H            0.21132466770462       -2.50101754037317       -8.82980468798911
