173
 energy: -266.427214517607 gnorm: 0.001543039276 xtb: 6.6.0 (conda-forge)
C           -2.48293999967478       -3.12225000018592       -0.58820999992811
H           -3.12331537894170       -3.97262891588962       -0.72227314321003
C           -1.80776511116740       -2.77355431440909        0.60100203392381
H           -1.83407202468430       -3.31951473007327        1.52679415799448
C           -1.04920878756921       -1.59612256339077        0.34599031435282
C           -2.14788241928955       -2.17566551453967       -1.58087334211479
H           -2.47357556078785       -2.19933064139342       -2.60496812592669
C           -1.26567709021895       -1.23127685040089       -1.01122322629872
H           -0.81600805829943       -0.39705387389771       -1.51564110768951
C           -5.06009504548269       -1.24054114974291        0.54430813013231
H           -5.74500131668696       -2.05429097422157        0.39457323572943
C           -4.28564597844823       -1.00737129133093        1.70206823107820
H           -4.28198135407585       -1.61095633102220        2.59052860837675
C           -3.55630251654842        0.18592859700565        1.50351120982788
H           -2.89233844902685        0.65824653409228        2.20231856702945
C           -4.80987561362169       -0.19108864095347       -0.36835977716021
H           -5.29129114484642       -0.06598008921888       -1.32175236666545
C           -3.87975542133949        0.69050046085144        0.22773237171553
H           -3.49595542614657        1.60345488120563       -0.18768056954927
Fe          -3.03948075802630       -1.22021348219325        0.07896308489526
C           -0.26147552487679       -0.83609710955460        1.35814935323506
H           -0.64415561428147       -1.06438037637659        2.35402570058025
H           -0.38438444960467        0.23190294866399        1.17924890896081
N            1.20840386838802       -1.13787677102731        1.35509745339755
C            1.77005667022560       -0.77265756263598        0.01551837392635
H            1.31034609671174       -1.43571051273544       -0.71953341850556
H            1.46199031435720        0.25380620562269       -0.19368142389436
C            1.41598042608712       -2.57111328304295        1.62893852283551
H            2.48049927098013       -2.79296583540165        1.63442222887602
H            0.99355574645926       -2.81839206799113        2.59995020065477
H            0.92209288416061       -3.16637928663626        0.86343965624829
C            1.84399112245321       -0.33759024385778        2.41567905344445
H            1.39391696642061       -0.57563090781811        3.37678255387756
H            2.90911609668671       -0.55346454572425        2.45464486520502
H            1.70104319527965        0.72192549974080        2.21274419973577
P           -0.43396913253302        3.22198063600318        0.18708803962926
F           -1.83152186428651        3.78056987085522       -0.41760116223305
F           -0.57200212217284        1.88962282304920       -0.72214152329680
F           -1.23465183089337        2.49138697648665        1.38455568253683
F            0.96281527181143        2.64518919840408        0.78566731410292
F           -0.28590029749093        4.55674209905933        1.09623216140083
F            0.37833606703812        3.95415727486867       -1.01036698017300
C            3.27065935762332       -0.86774688665620       -0.07701573997634
C            4.05606798649287        0.24946020797822        0.19019412056458
C            3.88894875989309       -2.05120589029869       -0.46686889679177
C            5.43463656326878        0.17696947297390        0.09280573452764
H            3.58459149308195        1.18306571462923        0.46028872573451
C            5.26834191725504       -2.12262509454758       -0.56152199871855
H            3.29562961598767       -2.91837034023395       -0.71243690310242
C            6.04406141150662       -1.01124612434443       -0.27714955482964
H            6.03144012231353        1.05147377758738        0.30105255121237
H            5.73587656208822       -3.04633532012216       -0.86528252943822
H            7.11924888896547       -1.06448318544753       -0.35537162944182
C            3.12870928158756        0.03874996463009        8.50105278362450
C            3.82701396798727       -0.63550758612084        7.44834734627086
N            4.38062718153780       -1.18084656917831        6.60744051837855
H            3.39714396763717       -0.40547988337258        9.45868055449021
H            3.40008167692854        1.09363717824480        8.50007491401368
H            2.05560993883520       -0.05778877414826        8.34063779845899
C           -2.60407300345570       -4.38223986172754        7.88207087062388
C           -1.71718098318135       -3.60549810279352        7.07055961430899
N           -1.00740773403488       -2.98420170390104        6.42154419561123
H           -2.14032720531981       -5.34050340932651        8.11230484252217
H           -2.81676190244894       -3.84616929385055        8.80616258308054
H           -3.53343476192456       -4.55147599614792        7.33985288115986
C            1.11142324108524        5.54872423404993        4.22552303905280
C            0.85591269793819        4.38721869056580        5.02165381402160
N            0.64801821177532        3.45459799116383        5.65267424649137
H            0.53028580438660        6.38872290065961        4.60285160530658
H            2.17164713049244        5.79395993734910        4.26274707988577
H            0.82234886990467        5.34515914335135        3.19483169611524
C            2.79790457103019       -6.38972173701564        5.22203485730042
C            3.78141099827378       -7.38522439898691        5.52799283068775
N            4.57133903595876       -8.17931720297261        5.76663967506160
H            1.94592768245331       -6.50396897925947        5.89052987390486
H            3.23143281532440       -5.39927062697637        5.35351916353592
H            2.46719911518368       -6.51489345274476        4.19205834151052
C           -4.00085915306640        1.44801906449935        6.77803661719303
C           -4.89731303180232        0.40477110152400        7.17800090885381
N           -5.61349439592818       -0.42981767574569        7.49679461582636
H           -3.88150017782116        2.15930772395324        7.59412207375185
H           -3.03150611265045        1.01947651456010        6.52848784542699
H           -4.40495727807394        1.96103012468796        5.90648692687130
C            6.34048618955201        3.04230045333660        4.55197000176383
C            6.09470505480531        3.79232891809927        5.74707640411024
N            5.89240294370065        4.39068027774435        6.70232859883732
H            6.91112969433188        2.14718355409491        4.79533848485012
H            5.38902711168806        2.75829795685574        4.10461021831579
H            6.90400950239807        3.65381369771879        3.84843860418003
C           -2.54027268142009       -8.12564122488867        1.64070858379555
C           -2.27506687841482       -7.82066849764339        3.01453690306482
N           -2.06366188999851       -7.57448159774818        4.11275460682526
H           -2.57504158913022       -9.20632094864651        1.50911164290778
H           -3.49800763026289       -7.69521535865976        1.35225570227239
H           -1.75027477028167       -7.71090720884671        1.01647668647093
C           -3.01456460215007        6.99911879750235        0.48223708348067
C           -2.07506905396935        8.01921018453430        0.84028452923074
N           -1.32969065700617        8.83843919293771        1.13013412261345
H           -3.79779589475356        6.94599513444804        1.23673946897843
H           -3.45072799468364        7.23093470071959       -0.48819137750719
H           -2.49821567706419        6.04158403834274        0.42587113786465
C            7.43329915700480       -6.73083291170519        1.66740514271902
C            7.56839514733977       -7.19162057720543        0.31790244506077
N            7.67075058041803       -7.55426490665802       -0.76340181378367
H            7.61787656562376       -7.55520071820711        2.35508942134254
H            8.15250805753976       -5.93432209740384        1.85348280302078
H            6.42342985965126       -6.35364493844804        1.82020085449930
C           -9.90618549298685       -5.48350504418062        1.01696169794665
C           -8.59930282371435       -5.90386070947073        0.60665473623780
N           -7.55528875843280       -6.23868270053587        0.27777463442219
H           -9.81605881665916       -4.73789517703441        1.80598251553967
H          -10.43122709353835       -5.05088298841024        0.16621480483969
H          -10.46333948243945       -6.34191917580251        1.39007701019853
C            2.85454828334320        6.52789948318627       -1.13160439659213
C            3.86974042584007        5.93305160366919       -0.31656764053192
N            4.68041383060415        5.45679248605041        0.33707814009233
H            2.54332595249196        7.47485593339129       -0.69313269120655
H            3.24340078597773        6.69803216106203       -2.13426573817451
H            1.99893424473776        5.85495313775275       -1.18339866694906
C            3.08094557858019       -9.07346378784514       -1.97254060421814
C            2.75669120227895       -8.03339137939154       -1.04430446622107
N            2.49596912975365       -7.19984294298784       -0.30411446529338
H            2.16189614763642       -9.51160895923961       -2.36332266666531
H            3.66452299565717       -8.65569508207989       -2.79359141758221
H            3.66752529553398       -9.84089032218441       -1.46718921943977
C           -7.84964359707869        3.98303073876269       -0.96634249623840
C           -7.87385265311943        3.67021450164582       -2.36436937888504
N           -7.89302691007071        3.41789108103532       -3.48093077197206
H           -6.82843979691430        4.21348175990019       -0.66514766308508
H           -8.48914503078349        4.84416607736308       -0.77640827098211
H           -8.21069419985003        3.12732450117358       -0.39728372659246
C            8.92571391911495        3.11527058257542       -2.77910548473073
C            9.68326574817287        2.81524392447773       -1.60044992429554
N           10.28278491638011        2.57197304988993       -0.65580810580634
H            8.05717314099282        3.71519542444491       -2.50933947890821
H            9.54662619351375        3.67177274223833       -3.47961758960982
H            8.59631052129010        2.18731574161188       -3.24480581066529
C           -4.29596114430231       -6.94369702344154       -4.17701123895377
C           -3.05081194670716       -7.55581327811953       -3.82219799270219
N           -2.05414855701397       -8.04312088670381       -3.53820510750647
H           -4.97447229368765       -6.97760052572664       -3.32576432050320
H           -4.12541378468515       -5.90642332313696       -4.46189770727730
H           -4.73901803221210       -7.48098969308212       -5.01449290182330
C           -2.90158127015069        1.01422856065842       -3.02248212419129
C           -2.12446762404065        0.65425178745621       -4.16700952549259
N           -1.50051070121927        0.36143646554166       -5.08187372353597
H           -2.31451544839409        1.67246147510742       -2.38500643185498
H           -3.80333125493807        1.53262760520249       -3.34133554883973
H           -3.16643497931845        0.12348549413287       -2.45260867083420
C            7.05666175225462       -4.28546276986331       -5.35114086294472
C            7.24305986435734       -2.87371426903020       -5.21958133145034
N            7.38823572740783       -1.74229299260451       -5.11045262718065
H            7.54440798028429       -4.79723293809215       -4.52244693686037
H            5.98932334819044       -4.51030992306504       -5.33952756893873
H            7.48770104143810       -4.62304657475505       -6.29251629711373
C           -6.77364745523706       -0.12908052047370       -7.07310906900173
C           -6.44280329269710       -1.15819745280824       -6.13316001884215
N           -6.17711383635016       -1.98099059277485       -5.38279230118799
H           -7.69064920484168        0.36845717332806       -6.75949678021445
H           -5.96335235112362        0.59821144113955       -7.11333290329438
H           -6.91628130653961       -0.56921685728570       -8.05939661597563
C            3.81521314121648        1.89885227426195       -5.14947252979976
C            4.29923223173420        3.22665405753148       -5.38254268246032
N            4.68957755850003        4.28679109078243       -5.56953188260329
H            4.30008709824990        1.48589742230290       -4.26621706808217
H            2.73762913952359        1.92849977649348       -4.99355556391078
H            4.04321739606424        1.27428900097586       -6.01206354302717
C            1.30124308165874       -4.31363639604585       -4.83844956033143
C            2.67480099490179       -4.61470498824239       -5.09860435770690
N            3.77492416523409       -4.85586280074432       -5.30623703244155
H            1.00485044305309       -4.75959705174504       -3.89035216332371
H            1.16994745074326       -3.23335795543047       -4.79335260039921
H            0.68305562241290       -4.72050198875694       -5.63759397346341
