163
 energy: -251.552744395461 gnorm: 0.000447486000 xtb: 6.6.0 (conda-forge)
C           -3.53561000025896        0.97471000022517        0.77917999981845
H           -4.55097210471570        1.17969896739575        1.06005884284722
C           -2.82362269143518        1.59419651075240       -0.26897802051613
H           -3.19433058412490        2.36529860075330       -0.91948306257537
C           -1.50304579385726        1.06495922506399       -0.27272908861535
C           -2.66087213826736        0.08459262116210        1.43707045036816
H           -2.89525597594125       -0.48747958485872        2.31561231004930
C           -1.40660117926404        0.14725061152696        0.80347174228429
H           -0.53297533977676       -0.41150835537498        1.08254311742229
C           -4.69260566766839       -0.67049772053576       -1.70418145695481
H           -5.60773331052107       -0.15362079637925       -1.48419877318229
C           -3.67747105918172       -0.23502773906720       -2.58696134225701
H           -3.69087165561821        0.66750556782912       -3.16943656312132
C           -2.68791088382739       -1.23980022733988       -2.63853936121340
H           -1.79052183582449       -1.22126306100060       -3.22734643747808
C           -4.31457034545676       -1.93295860336055       -1.20012613515639
H           -4.89766542417345       -2.55219115118922       -0.54163645952030
C           -3.08657895031842       -2.28947286862765       -1.79726987357771
H           -2.54686271853467       -3.20473455703496       -1.63882994106387
Fe          -2.93753384877664       -0.39086030784465       -0.68364524609375
C           -0.45384695479325        1.39825282191184       -1.27779972301418
H           -0.93176687322503        1.74836764184731       -2.19430294839635
H            0.12088409316485        0.50152756270285       -1.50303724037823
N            0.50268383833821        2.46335728397230       -0.83719212883920
C            1.20009491465354        2.04931306533922        0.39040649593594
H            0.48604433712512        1.95127707140788        1.20498682659379
H            1.68957546554575        1.09080188528889        0.22743929286347
H            1.94813461420295        2.79308545039910        0.65569829220240
C           -0.23423053186924        3.71525552418275       -0.59491714799805
H            0.45914488634536        4.49539958139062       -0.28895553179039
H           -0.73614484269940        4.01518019602457       -1.51299993381923
H           -0.97169219410333        3.56026629315210        0.18955733535679
C            1.48237493933928        2.67449183780145       -1.91509081315233
H            0.96057140269256        2.96338292992108       -2.82561441250376
H            2.17507065342170        3.46428206981999       -1.63484049368674
H            2.03803209399184        1.75582563960102       -2.09388420846855
P            0.96230370738278       -2.57135255914660       -0.99977298294167
F            0.20026418384674       -4.00174916672368       -0.95425240856986
F            0.92564640779108       -2.59241654079126       -2.61784152437962
F            2.39328531042190       -3.35261486819970       -1.02819928050313
F            1.74996843016224       -1.15336437646521       -1.03478573119825
F            1.02298761611497       -2.55375375341590        0.62300899931578
F           -0.44314808782891       -1.79406244990452       -0.95945584613646
C            1.24246379852924        1.80257688977915        7.58831834237513
C            0.66256261185914        1.49237299945961        8.86089306698712
N            0.19825714768326        1.24401108802169        9.87770041988592
H            0.57922149061412        1.46125185938831        6.79497594748882
H            1.38350767631299        2.87929410121854        7.50638424146415
H            2.20712388238842        1.30480935666899        7.49939231382577
C           -3.20871389185402       -2.26949224198912        9.11276067157702
C           -2.79811215173089       -2.06867802184155        7.75647823145313
N           -2.47070028160739       -1.90546016119063        6.67136986970425
H           -2.35699715621387       -2.60191599180367        9.70481806465922
H           -3.58624715435439       -1.33130104974261        9.51750547519011
H           -3.99607098361396       -3.02144960530126        9.14659858969274
C            2.28165806944192        7.76694796508824        4.80596729921967
C            1.59365422609045        6.60406801922865        4.33184571339359
N            1.04203760939352        5.67597457436108        3.95111391384690
H            2.79746376532992        7.53219604704163        5.73618971004104
H            3.00663549338402        8.08572581329508        4.05822052002424
H            1.56469056646470        8.56866835670134        4.97831659247113
C            2.33640655432612       -2.64072469515803        3.84777244741024
C            3.02858832531304       -3.89358074513587        3.87344909299077
N            3.58489346652677       -4.89450913032077        3.89281197432189
H            3.02251972326620       -1.84157482282684        4.12356012491671
H            1.96061560853990       -2.46686000501386        2.84065109218535
H            1.50343862956150       -2.67103714423658        4.54837934892616
C           -6.84679480415438       -0.03831245882820        5.04914136496109
C           -7.30732175626197       -0.48321427499571        6.33054730296426
N           -7.67346491886363       -0.84100563319326        7.35481663510773
H           -7.65647832491976        0.47170951242648        4.52924726482958
H           -6.00896874577386        0.64442612893203        5.18328968015113
H           -6.52469815769238       -0.89867811115720        4.46436837174435
C            6.10801936866128        3.60498203510039        3.94471990215138
C            5.84229739931167        3.90089098145265        5.32017226360961
N            5.62767785724032        4.13739083140856        6.42012469198038
H            5.16681242851766        3.50634644470551        3.40643013738300
H            6.69290932203938        4.41199536932193        3.50572713597977
H            6.66585449561484        2.67217126483238        3.87482341103134
C           -2.34183498957918       -3.27185031546071        1.31711131657116
C           -3.18824312234507       -4.39247097366367        1.06183750907230
N           -3.87488268687332       -5.28818133761505        0.86134142156774
H           -2.31674949631101       -3.06993540402271        2.38518294009503
H           -1.33630895376363       -3.49292305915550        0.96723711622373
H           -2.70380299673196       -2.39446109384137        0.77256911460896
C           -1.97368698024289        8.51227414649439        0.50107527192000
C           -0.73430754435742        9.22052804010167        0.61942886195247
N            0.25570428329833        9.78828112968828        0.71438712591124
H           -2.01133549060313        7.72016067932121        1.24740691785991
H           -2.80108364033249        9.20229767878262        0.66148942786788
H           -2.05272892041834        8.07968591685057       -0.49504553472083
C            5.82640432648222       -2.79401457125920       -0.31656404030897
C            5.85334463581593       -1.49726359255285        0.28860596538755
N            5.87441386748723       -0.46068508220589        0.77428580460255
H            6.17964498978075       -3.53796618278156        0.39601830242030
H            4.80375289936026       -3.02972759106746       -0.60926084643284
H            6.46498101866545       -2.79909997788039       -1.19847724016732
C           -9.39342626361666       -4.31764808696487        0.99229915293185
C           -9.28303858734502       -2.89024488655764        0.93500925071440
N           -9.19538111442770       -1.74982516865855        0.88636484659261
H          -10.02277655121953       -4.60016604654918        1.83524780877663
H           -9.83737412458211       -4.68459182159541        0.06782431196781
H           -8.40258424267386       -4.75326315898294        1.11639992577686
C            4.54986627071299        8.51391528417705       -1.61355923001449
C            4.57223238255851        7.43758061374897       -0.67076095937720
N            4.58873794964730        6.57592973024723        0.08338106482370
H            3.58746488191468        8.52862983513305       -2.12301151461008
H            4.69736552126585        9.45810907732393       -1.09110586981137
H            5.34461568279626        8.37091126458433       -2.34484895090484
C            2.32984146777187       -6.90571613973271       -0.62855699746253
C            2.63178678453523       -7.16622571660284       -2.00311827303367
N            2.87087542684523       -7.37623749990513       -3.10323695981658
H            3.21029588292006       -7.09434429407051       -0.01664097211702
H            2.03070149018578       -5.86370636376099       -0.52190125432016
H            1.51326684129385       -7.54873639885963       -0.30426060661106
C           -7.42328103796800        4.21363280248270       -2.70642141414715
C           -6.36203873610951        5.17028013569864       -2.60326417605989
N           -5.50971300959199        5.92984328376234       -2.51738998140039
H           -7.58154413782269        3.74119335676246       -1.73784951379174
H           -8.33753645389893        4.71678189181196       -3.01847435578585
H           -7.15804295432985        3.45531016617314       -3.44203313535766
C            7.22745761361735        3.15512728791780       -2.52289843816869
C            7.82929454858331        4.27555423440180       -3.18074691203538
N            8.30870820027776        5.17141396645579       -3.70914300806074
H            7.35439660274803        3.25309131805391       -1.44597289984676
H            6.16607383451366        3.12189001515274       -2.76162271389184
H            7.70109261521364        2.23496719024782       -2.86197740109131
C           -1.96263912849205       -6.38447337993441       -4.98432162533363
C           -2.39177164047618       -5.45467300997964       -5.98497852478460
N           -2.73655269238691       -4.71323150932825       -6.78635867389983
H           -1.16174761074248       -5.93833555767898       -4.39638895321568
H           -2.79859026615569       -6.62568680772043       -4.32900533856813
H           -1.59692540342295       -7.29287883302782       -5.46108363236970
C           -1.94646831705608        4.63060215750495       -5.96360572472614
C           -1.46759025032051        4.03701450556832       -4.75760161103383
N           -1.08544781522935        3.56350623035715       -3.78717075355634
H           -2.35510558636044        5.61617717976737       -5.74355653277366
H           -1.12262162811378        4.72832654345568       -6.66966598677140
H           -2.72528218539145        4.00313729360655       -6.39553182426068
C            3.12629833858630       -2.64212761619330       -5.35131018252511
C            4.02130194989786       -1.56813484285708       -5.04483320357466
N            4.73715150960022       -0.70827510752650       -4.80111858138426
H            2.39448185355114       -2.73823681418093       -4.55005362847404
H            2.61418401076426       -2.43305767638527       -6.28913255322711
H            3.68678856947890       -3.57162754612953       -5.43910309488943
C           -6.69591929942510       -1.53539684418464       -6.86080497108163
C           -6.34603887908454       -0.15114853058107       -6.96813435325298
N           -6.06546122868143        0.95582486792969       -7.05300021602759
H           -6.23991620616874       -1.95579147620126       -5.96547073351711
H           -7.77886984821095       -1.63344378997499       -6.79799298014812
H           -6.33186644407644       -2.07168782268799       -7.73613962263344
C            4.55127114589700        4.28802000953374       -7.28353073224384
C            3.80416069556170        5.06841745962340       -6.34396474540466
N            3.20579657335321        5.69091149447181       -5.59190754608453
H            4.08712112788694        4.35959474491017       -8.26627620519294
H            5.57352769183717        4.66072893775203       -7.33428552298775
H            4.55888135988466        3.24667348479231       -6.96414940618586
C           -1.33927119623206       -0.21252192620838       -8.63548183571253
C           -0.13157278930635        0.55708840772929       -8.65235169699521
N            0.83224459658206        1.17525298201406       -8.66352841543270
H           -1.65608750461589       -0.36893009024241       -7.60522975449426
H           -2.11787686917563        0.32137122308412       -9.17868051959130
H           -1.16334096947550       -1.17746963589575       -9.10891035793580
