43
 energy: -251.453625822298 gnorm: 0.000775647107 xtb: 6.6.0 (conda-forge)
C           -2.63176645086796       -0.17348273454838        1.27268992981009
H           -3.67808902139241       -0.17499012291879        1.52735185108384
C           -2.02253269259553        0.60245292006255        0.25566358210410
H           -2.50976207706243        1.30733393255026       -0.39391111599756
C           -0.62624641694227        0.46500637559407        0.40132123987927
C           -1.60388450966925       -0.70920685785197        2.07637165234382
H           -1.74692540157111       -1.31262354798505        2.95396112861044
C           -0.38134981407098       -0.31992683351421        1.54100681123684
H            0.59191777873152       -0.62220985482799        1.88545547306918
C           -4.12748526219313       -0.57526782692035       -1.36037186307956
H           -4.68778007132445        0.25407530940187       -0.97144400073168
C           -3.10355653578201       -0.52515578710672       -2.33395650390288
H           -2.72607003360729        0.35684662344717       -2.81841275339339
C           -2.70023142600066       -1.84490625587180       -2.60116010379080
H           -1.95554794398944       -2.14177922337986       -3.31414908590939
C           -4.33195451563225       -1.92532122402632       -1.01241278668844
H           -5.08421226220168       -2.28819329094721       -0.33610489194959
C           -3.44488955204136       -2.70877672344647       -1.77713450129882
H           -3.37577204140496       -3.78142369502716       -1.76995036932262
Fe          -2.36697966823056       -1.28843584158875       -0.55897676599504
C            0.39086272377157        0.97269342615976       -0.55623552665600
H           -0.04448983362456        1.00345324165911       -1.55372094842473
H            1.24897566468118        0.30058588191694       -0.56075077007870
N            0.91401933708489        2.34685213280188       -0.25922193937926
C            1.51059657490116        2.37880773711048        1.07961758220036
H            0.75046532147971        2.15766554940424        1.82407295984602
H            2.29745744626494        1.63043480927673        1.13927874155148
H            1.92528035854681        3.36700364335678        1.26768031842445
C           -0.16967638232494        3.33149708162342       -0.33432720455355
H            0.22457460976002        4.32764812392269       -0.14421289489841
H           -0.62552158079213        3.30752028770804       -1.32124719458846
H           -0.92591816360483        3.09587884497596        0.40970986004128
C            1.93924977027377        2.66262943260121       -1.25934535261550
H            1.49655688605867        2.64014205136795       -2.25223034438094
H            2.34927267535247        3.65320915915857       -1.07737297212760
H            2.73994149172065        1.92778211100007       -1.20481643592924
P            0.28843157239481       -3.07421228291024       -0.86241346647072
F           -0.76260948369998       -3.82481873842414       -1.81830911762922
F           -0.15062194404980       -1.64091492840201       -1.51680778431698
F            1.43409838200758       -3.21068400859228       -1.98697011041410
F            1.30293640437151       -2.28231605388480        0.09219211991956
F            0.70424718252408       -4.47278825205905       -0.20506415865565
F           -0.90510881774832       -2.89587702253123        0.25068692408420
