163
 energy: -251.453625822298 gnorm: 0.000775647107 xtb: 6.6.0 (conda-forge)
C           -2.63176645086796       -0.17348273454838        1.27268992981009
H           -3.67808902139241       -0.17499012291879        1.52735185108384
C           -2.02253269259553        0.60245292006255        0.25566358210410
H           -2.50976207706243        1.30733393255026       -0.39391111599756
C           -0.62624641694227        0.46500637559407        0.40132123987927
C           -1.60388450966925       -0.70920685785197        2.07637165234382
H           -1.74692540157111       -1.31262354798505        2.95396112861044
C           -0.38134981407098       -0.31992683351421        1.54100681123684
H            0.59191777873152       -0.62220985482799        1.88545547306918
C           -4.12748526219313       -0.57526782692035       -1.36037186307956
H           -4.68778007132445        0.25407530940187       -0.97144400073168
C           -3.10355653578201       -0.52515578710672       -2.33395650390288
H           -2.72607003360729        0.35684662344717       -2.81841275339339
C           -2.70023142600066       -1.84490625587180       -2.60116010379080
H           -1.95554794398944       -2.14177922337986       -3.31414908590939
C           -4.33195451563225       -1.92532122402632       -1.01241278668844
H           -5.08421226220168       -2.28819329094721       -0.33610489194959
C           -3.44488955204136       -2.70877672344647       -1.77713450129882
H           -3.37577204140496       -3.78142369502716       -1.76995036932262
Fe          -2.36697966823056       -1.28843584158875       -0.55897676599504
C            0.39086272377157        0.97269342615976       -0.55623552665600
H           -0.04448983362456        1.00345324165911       -1.55372094842473
H            1.24897566468118        0.30058588191694       -0.56075077007870
N            0.91401933708489        2.34685213280188       -0.25922193937926
C            1.51059657490116        2.37880773711048        1.07961758220036
H            0.75046532147971        2.15766554940424        1.82407295984602
H            2.29745744626494        1.63043480927673        1.13927874155148
H            1.92528035854681        3.36700364335678        1.26768031842445
C           -0.16967638232494        3.33149708162342       -0.33432720455355
H            0.22457460976002        4.32764812392269       -0.14421289489841
H           -0.62552158079213        3.30752028770804       -1.32124719458846
H           -0.92591816360483        3.09587884497596        0.40970986004128
C            1.93924977027377        2.66262943260121       -1.25934535261550
H            1.49655688605867        2.64014205136795       -2.25223034438094
H            2.34927267535247        3.65320915915857       -1.07737297212760
H            2.73994149172065        1.92778211100007       -1.20481643592924
P            0.28843157239481       -3.07421228291024       -0.86241346647072
F           -0.76260948369998       -3.82481873842414       -1.81830911762922
F           -0.15062194404980       -1.64091492840201       -1.51680778431698
F            1.43409838200758       -3.21068400859228       -1.98697011041410
F            1.30293640437151       -2.28231605388480        0.09219211991956
F            0.70424718252408       -4.47278825205905       -0.20506415865565
F           -0.90510881774832       -2.89587702253123        0.25068692408420
C            0.07069636548616        1.51935393549894        4.55494920994934
C           -0.36578437237703        0.99091281621100        5.80976482652771
N           -0.72590228810748        0.56141021057366        6.80764265404193
H           -0.19588467552787        0.81777805428188        3.76222668386338
H           -0.42198257858954        2.47363350221700        4.37269435739532
H            1.15041237568427        1.67074440640153        4.56932822676372
C           -3.29841503710330       -1.29071536302258        6.19807248166608
C           -2.69554684480168       -2.29141410881668        5.38047774390883
N           -2.20657527589593       -3.08733173889293        4.71663527006155
H           -3.99489580930786       -1.75337168851362        6.89528560122172
H           -2.51844404959810       -0.76044951062797        6.74743148744969
H           -3.82919561553680       -0.57604913470005        5.56643561278178
C            1.52707951489191        5.59859660391917        3.69460026946736
C            0.26499636985596        5.05250257655408        3.32737391825897
N           -0.74003042995425        4.59152756952941        3.02644266759858
H            2.07226120033487        4.86544904097599        4.29024423887835
H            2.09347451614647        5.81039798954020        2.78565188932502
H            1.38674537532686        6.51495782610321        4.26465586334945
C            0.80170663758229       -3.88427926523507        2.90499154710488
C            2.13659893886553       -3.86346627467806        2.39990221746612
N            3.20893223256899       -3.85272238086733        1.99699960922766
H            0.80270922510102       -3.77807009904236        3.98852420232184
H            0.23820272015078       -3.06600585660455        2.46023482406625
H            0.32835130195246       -4.82389824348976        2.62640521361347
C           -3.36068770951921        2.76456456363781        2.70278875353895
C           -3.98076652460823        1.92276496013884        3.67409215436454
N           -4.49458932333868        1.24109836308376        4.43761350218262
H           -2.70583535911699        3.48327402828815        3.19210471039949
H           -2.77914796352144        2.13858007839302        2.02505530764652
H           -4.12850318871952        3.28679246064916        2.13348568480676
C            4.81005848775426        3.01470128470924        2.06504172818369
C            3.93362519841666        2.88732725244951        3.18623960495257
N            3.21227306015843        2.79712973311014        4.07110284695840
H            4.49774870656671        3.87376222063038        1.46918631104946
H            5.83289915201549        3.15841657482447        2.40921293861907
H            4.74788009046778        2.10939257548903        1.46024643255440
C           -3.53885301638377       -3.55562574661322        1.80798920793473
C           -4.86235209031400       -3.10770439770803        2.07870555912539
N           -5.92841509441268       -2.73707518026734        2.27890518263662
H           -2.98310714511316       -3.61967485604105        2.74373567839604
H           -3.56231929965988       -4.53008550990732        1.32629577514955
H           -3.05052345484763       -2.83510303157340        1.14808344782903
C           -2.41334983960196        5.98196902980250        0.59328312633941
C           -1.35609276046717        6.88980653284182        0.27841870581502
N           -0.50176604429920        7.61464975541203        0.04410629177759
H           -2.13963890060542        5.43292440637506        1.49420998813208
H           -3.33365841607472        6.53759275969823        0.76666606064795
H           -2.55747422006442        5.27992053787846       -0.22912703025198
C            4.30271274133387       -2.03562540204647       -0.39149927696301
C            4.12102263629745       -0.65516579839714       -0.10924093450109
N            3.98306883734648        0.46094684473715        0.11723128334206
H            3.96630879732020       -2.62219142870659        0.46861298313947
H            3.69888862549250       -2.30692745828898       -1.25637250147971
H            5.35376246188580       -2.23660771650473       -0.59364912145258
C           -6.98634337283742        0.21476172745575        2.41546941266325
C           -6.55377525755339        0.94442364573844        1.27128814215072
N           -6.20607474289833        1.53342826444983        0.35137887498985
H           -6.47022856375586        0.58835816975324        3.30032943165625
H           -8.06217572188532        0.32677717688022        2.53984978421814
H           -6.74008772915665       -0.84329352580003        2.29011738763349
C            2.31775125695696        6.95174895963578       -1.22246807725219
C            2.61946543148277        6.09720658529176       -0.13083382347229
N            2.82847951597645        5.39521045175331        0.75363393642070
H            2.02698637399776        6.34174917833872       -2.08071942556586
H            1.48518207211428        7.59846854495962       -0.94248856317831
H            3.19435977495741        7.54074649692910       -1.48193086325884
C            3.70390131991682       -5.56981346279682       -1.23827496427128
C            3.51973723099621       -5.21503872323584       -2.61176263580103
N            3.38182814725533       -4.94149945198327       -3.71461892909980
H            4.70366268648207       -5.28914308942885       -0.91126364395201
H            2.96601143162739       -5.05082824171070       -0.62878412012610
H            3.57158815516172       -6.64435828024502       -1.12082108214557
C           -5.26981370940405        2.75602177366102       -2.50258909888407
C           -4.02967610781826        3.24861030847382       -2.00079176773419
N           -3.03460762887437        3.64157348138316       -1.59082443225666
H           -5.82373012333656        2.30599428147974       -1.67701675784609
H           -5.84824636500790        3.57649007224956       -2.92514736842369
H           -5.07947847597142        2.00871139787794       -3.27343866755783
C            5.61485019645636        2.60588905338056       -2.07608223809103
C            5.04993604699093        3.91901434989509       -2.10942620215622
N            4.58976983693918        4.96683370671664       -2.13616661108177
H            5.58062475622854        2.21637879998400       -1.05984810743141
H            5.03278768748396        1.94556508726014       -2.72047244471771
H            6.64683052882236        2.63960519767844       -2.42157899698737
C            0.32062480642614       -4.59305598166899       -4.76842987460637
C           -0.35233775121873       -3.47587164441288       -5.33356195463610
N           -0.90796842033918       -2.58215440627001       -5.79002665500607
H           -0.13155875396418       -4.82669263309418       -3.80600656228280
H            0.23823751267708       -5.45062704164019       -5.43452993087975
H            1.37433721075251       -4.36214899032292       -4.60134278976958
C           -1.98036805697089        3.49503321705821       -4.98391744279418
C           -1.18662798464816        2.65520886154985       -4.14962850454741
N           -0.55920300717544        1.97442701257848       -3.47596929348578
H           -2.22141669842279        4.40749091240334       -4.44085582697468
H           -1.41830996965283        3.73958082706343       -5.88392876115489
H           -2.89559332624358        2.96439009111957       -5.24872468017776
C            1.38143711331812       -0.54197414898219       -4.12683612937887
C            2.57820318735244        0.16776338008112       -3.83075942129025
N            3.53092114253664        0.75738946014891       -3.58960103239408
H            1.28389377762077       -1.39016878127771       -3.45417950882330
H            0.53124992000478        0.12637898974980       -3.98490609844274
H            1.40464951558488       -0.89218178898168       -5.15698096158459
C           -4.11562152631216       -1.50086116284029       -5.50905680530588
C           -4.13876578464499       -0.07835184408583       -5.39786498205351
N           -4.15827608960131        1.06486961743798       -5.32587210001138
H           -3.08587155010709       -1.84219478898895       -5.62590613724124
H           -4.52851318307144       -1.93707939754319       -4.60037657066558
H           -4.70587012907248       -1.81212879017380       -6.37021990052344
C            2.62638280415816        3.65409077139812       -5.23880760937908
C            1.84654363901307        4.41608061671113       -4.31861518194198
N            1.21258562968805        5.01652099137310       -3.57730444183160
H            1.96323668886180        3.15116791674099       -5.94344030551609
H            3.30861208684574        4.31154235328821       -5.77459911551122
H            3.19487586803328        2.90284218597951       -4.69118856459923
C           -1.21002244061604        0.10328762369705       -7.49714879873612
C           -0.26742237438250        1.12299378738923       -7.16556640210184
N            0.48242606268635        1.94707406845710       -6.90308119730908
H           -1.00950627357237       -0.78881950014919       -6.90059291409508
H           -2.21590519938490        0.46271399186487       -7.28206973747635
H           -1.12692286999492       -0.14246464987634       -8.55503515565077
