40
phenothiazine_0_gas.log	Energy: -792367.4148420
C          2.73015       -3.27784       -1.01554
C          3.93609       -2.97471       -0.39270
C          4.07157       -1.76237        0.27921
C          2.99599       -0.88290        0.36494
C          1.76897       -1.18382       -0.25242
C          1.66349       -2.38344       -0.96555
N          0.69826       -0.26862       -0.14388
C          0.98052        1.10522       -0.32090
C          0.16065        1.94755       -1.08085
C          0.45968        3.30149       -1.21176
C          1.59895        3.83449       -0.61791
C          2.44157        3.00106        0.11346
C          2.12652        1.65526        0.27946
H          2.61618       -4.20779       -1.56220
H          4.77008       -3.66590       -0.43743
H          5.00972       -1.49690        0.75465
H          0.74747       -2.61963       -1.49291
H         -0.72039        1.54936       -1.56845
H         -0.20080        3.93535       -1.79361
H          1.83669        4.88680       -0.72492
H          3.34198        3.39322        0.57400
S          3.13254        0.61506        1.30932
C         -0.66818       -0.74263       -0.30816
H         -1.06670       -0.57581       -1.31853
H         -0.67687       -1.81936       -0.13996
C         -1.61203       -0.11847        0.72069
H         -1.26720       -0.38015        1.73477
H         -1.61353        0.97901        0.64965
O         -2.89304       -0.64099        0.45539
C         -3.89182       -0.14490        1.31874
H         -3.70296       -0.46161        2.35872
H         -3.91474        0.95678        1.30079
C         -5.23559       -0.67616        0.86602
H         -5.16289       -1.76726        0.72212
H         -5.98518       -0.49167        1.65568
O         -5.59884       -0.03083       -0.33242
C         -6.80656       -0.51327       -0.86979
H         -7.65257       -0.36956       -0.17707
H         -7.00434        0.04776       -1.78666
H         -6.74723       -1.58600       -1.11607
