46
phenothiazine_p1_gas_secondrun.log	Energy: -875579.7192914
C         -3.62545       -0.26991        2.79693
C         -4.54258        0.39634        1.97107
C         -4.10442        0.97923        0.79925
C         -2.75451        0.89183        0.42490
C         -1.82689        0.17977        1.22630
C         -2.29856       -0.37873        2.43442
N         -0.49604        0.02637        0.85203
C          0.14504        0.91519       -0.00247
C          1.54726        1.05068        0.02831
C          2.19655        1.87274       -0.86998
C          1.47483        2.61146       -1.82014
C          0.09692        2.53160       -1.84577
C         -0.57908        1.69817       -0.94209
H         -3.95348       -0.69266        3.73953
H         -5.58379        0.47470        2.25972
H         -4.79445        1.52358        0.16374
H         -1.60740       -0.85965        3.11205
H          2.13957        0.49776        0.74178
H          3.27711        1.92000       -0.82671
H          1.99173        3.25570       -2.52179
H         -0.47725        3.11733       -2.55565
S         -2.30608        1.63787       -1.07328
C          0.22649       -1.16432        1.37762
H          0.81643       -0.88713        2.25739
H         -0.54713       -1.86148        1.68495
C          1.15671       -1.87987        0.37962
H          0.94821       -2.95809        0.42440
H          0.95069       -1.55391       -0.64651
O          2.48654       -1.62101        0.76876
C          3.46405       -1.79445       -0.24383
H          3.60950       -2.86015       -0.47478
H          3.15421       -1.27861       -1.16552
C          4.75947       -1.19387        0.26268
H          5.00627       -1.63641        1.24026
H          5.57544       -1.43843       -0.43599
O          4.59308        0.20565        0.37791
C          5.69662        0.84596        0.99206
H          6.62178        0.69985        0.41562
H          5.47000        1.91399        1.03445
H          5.85925        0.47438        2.01440
C         -2.88224       -3.24669       -3.06607
C         -2.17889       -2.41713       -2.09779
N         -1.62286       -1.75760       -1.32954
H         -2.22659       -3.47858       -3.91002
H         -3.20045       -4.18303       -2.59935
H         -3.76503       -2.72170       -3.44040
