261
 energy: -377.177987993475 gnorm: 0.000550306124 xtb: 6.6.0 (conda-forge)
C           -1.71014000003183        1.02414999980420       -0.62531000102014
H           -1.60292023735768        2.01901360368021       -0.23177757013104
C           -1.56019431993006       -0.17285856730269        0.10972177941643
H           -1.38589118160982       -0.24651101432296        1.16923011564593
C           -1.86100679654464       -1.24710568654552       -0.76167264646017
H           -1.93670000074796       -2.28213962506570       -0.47734031551305
C           -2.27026322194617        0.69284392773893       -1.88534061652714
H           -2.55966446623925        1.39282604492948       -2.64623910399325
C           -2.34202191095313       -0.69294491040043       -1.97895506177203
H           -2.71012500034056       -1.25342446907475       -2.81739797509674
C            2.48723304294516       -0.56050704047060       -1.34287718020290
H            3.08153120674983       -0.28422898717590       -2.19787373073941
C            2.21204599673100        0.26669538859817       -0.23539610817926
H            2.56441394468510        1.27375560295019       -0.09495397576020
C            1.48582643563456       -0.50213753327852        0.70541918063763
H            1.22063544432195       -0.19362162612931        1.70186723492354
C            1.91733240790114       -1.83800690003099       -1.10530030027604
H            2.03601641791414       -2.71305168115848       -1.72367607824967
C            1.31506432849475       -1.80382997099340        0.17248893038632
H            0.88629546452240       -2.64274686662628        0.69329249238108
Fe           0.26761379935060       -0.39951078774872       -1.10573400522220
C            1.76841717812677       -0.10883459391220        7.39858560487730
C            2.33482471638183       -0.01814982938683        8.77498796286760
N            1.58905353290211       -0.16554892297061        9.77265650053247
H            1.89058942050713        0.84833420836935        6.89444032695504
H            2.30708348888933       -0.86179067566089        6.82561879279412
H            0.71469556052578       -0.36439191060914        7.44426843768291
C           -2.01259466540012       -4.39917287779058        6.36229307588212
C           -2.09102923450482       -3.97245352003782        5.00040373560701
N           -2.15589986527152       -3.63113715094936        3.90877167836313
H           -2.53764835951514       -3.68411676180063        6.99742078747547
H           -2.47354350340801       -5.38060754813843        6.46522916463791
H           -0.96846646356985       -4.45191797566097        6.66771604229565
C            0.38864076903451        5.74311864869164        2.21638387929698
C            0.62765918692687        4.59020757439370        3.01770580415674
N            0.83397992434412        3.66188402715959        3.65932319536505
H            0.50364961189733        6.63397283349787        2.83452651667388
H            1.11541705425166        5.76795002242167        1.40359659962924
H           -0.62301440131586        5.71275216315418        1.81292224869407
C            4.05385716625629       -6.35872054788266        5.70249142481847
C            3.43951488548966       -5.32326364711386        4.91169317904492
N            2.96432544230960       -4.50545048089350        4.26878557481307
H            4.35875097222685      -11.79974473488853        5.72164872432388
H            4.21947122533616       -5.97507084785094        6.71267425098742
H            3.36566898391854       -7.20714325759676        5.75694929979539
C           -4.35417021039187        1.56030781596095        4.32058058107529
C           -4.57499391160476        1.79367418175943        5.71187061075712
N           -4.75978671438118        1.97795379456144        6.82805382106805
H           -4.09537646117564        0.51308752209341        4.17087833861496
H           -5.26685147009287        1.79460339805019        3.77063191907125
H           -3.54184075990792        2.19493920666034        3.96999448038834
C            3.95252939426688        2.81897762800922        4.23059709928662
C            4.17258842893182        2.75552334495255        5.63796006585717
N            4.34103768781076        2.69678222399077        6.77079173018754
H            2.89274824574805        3.00566957530730        4.04034499737457
H            4.54136176113176        3.62748569634750        3.79989720807284
H            4.24808853926805        1.87468096041140        3.77641436839543
C           -0.38275446347752       -9.58334914368541       -0.24882787858000
C           -0.38642294337711       -8.97101136874929        0.91595060368023
N           -0.78013241121121       -9.44698168333453        2.22765948657659
H           -5.22633386131058       -7.02243463722131        3.18404234558085
H           -0.18927093772848       -9.04247915933761       -1.15774099607868
H           -0.59085085132598      -10.63601554961713       -0.31302282455992
C           -3.50313072855040       10.65090145427456        1.47962884291541
C           -3.03234960308803        9.25414077943939        1.30734633330256
N           -3.81548428626986        8.30832820083397        1.80027504637289
H           -2.64128789912379       11.29443282992641        1.64876613176922
H           -3.92289801719019       10.93873990516641        0.51244813949598
H           -4.25486931272040       10.82914911129218        2.25232648737081
C            6.43296527247889       -2.71255527607587        1.03463789660552
C            7.62569775052360       -3.13094097065885        1.70154811562932
N            8.58078751400521       -3.46908879458769        2.23600991239332
H            5.89595455369658       -2.00656337416545        1.66636800488855
H            6.69522544354289       -2.23086110214084        0.09376495278933
H            5.80205610480870       -3.57850752983621        0.84014099492301
C           -6.58427751163787       -2.60441509546207        1.03131012557899
C           -7.19643279951207       -2.70616935521297       -1.24638206574393
N           -6.96453371649015       -2.41859340866486       -2.33271763424757
H           -5.65473678379393       -3.16882216530155        0.94955711020401
H           -6.36954279610449       -1.54120158441752        0.92377558637399
H           -7.04113489283772       -2.79953863982437        1.99912516032713
C            4.95579163702416        6.70368990563361       -1.20295741935759
C            3.81633219381586        6.16799284951052       -0.52960559906839
N            2.89399888072911        5.74852119978357        0.00483151722621
H            4.74894526638961        7.74025250849600       -1.47416167243512
H            5.82121517599023        6.66540625629318       -0.54268903616458
H            5.15512698868291        6.12295743404935       -2.10243384331236
C            4.34240606677771       -6.73428993869558       -2.78511097956717
C            3.36282428588503       -5.71305385012227       -2.59053488380069
N            2.58771343252136       -4.88533497148046       -2.42764726188192
H            5.12239664944302       -6.36905137498793       -3.45183962287396
H            4.78118995211337       -7.00403764402765       -1.82503904124462
H            3.87737363308246       -7.61681291630790       -3.22489109130368
C           -5.58049869652996        8.69617680961552       -4.95004899500445
C           -5.87283822026328        8.43441928701063       -3.57308674226058
N           -6.10401243924433        8.22381019079578       -2.47144621492856
H           -6.36710688506183        9.31702417776261       -5.37699167202304
H           -4.62594772863663        9.21554016447362       -5.02688155135945
H           -5.52594942167115        7.75395763109492       -5.49388710763733
C            9.31564045771445        2.73260448874850       -0.77374981587041
C            8.01261793603525        2.42768800666012       -0.27043195858146
N            6.96798082898530        2.18562259731024        0.13290395648376
H           10.05619075999956        2.11649085560935       -0.26542646871250
H            9.34682957963769        2.52930213107640       -1.84482663731893
H            9.53640369009575        3.78471072198821       -0.59867878906155
C           -3.01290643195487       -5.98505244502765       -3.50887036870170
C           -3.90774463555118       -6.43108933426967       -2.48558133449378
N           -4.62236282924146       -6.79154595275851       -1.66568278980538
H           -3.50246703909622       -5.21568161473066       -4.10343553632101
H           -2.10654738571588       -5.58435773072002       -3.05823709790442
H           -2.75524652731722       -6.82968572242129       -4.14982263942685
C           -1.32936083088168        5.93177618143852       -3.24044468041990
C           -1.25964305638140        5.86303308310769       -4.66862495600603
N           -1.20636624368434        5.80247082921427       -5.81104656389954
H           -0.52319552759410        5.34114286518051       -2.80841987717779
H           -1.22996449453778        6.96802847339382       -2.91992646947385
H           -2.29025644877676        5.54326788297982       -2.90675176388999
C            5.05740696466689       -2.50064866774759       -6.46342361013331
C            5.09705274212665       -1.40361088650377       -7.37930624265769
N            5.12860093883973       -0.51638639491437       -8.10388368292252
H            5.95365672574830       -2.48887274963566       -5.84461487116063
H            4.17445242821544       -2.41618911927106       -5.83236671730092
H            5.01178708414941       -3.43827977705039       -7.01786533767169
C           -7.90683366042956       -5.08511915011576       -9.38161259657547
C           -6.89186654905280       -5.54905218246908       -8.48321468282041
N           -6.08123836676744       -5.91902673941165       -7.76447347964121
H           -8.56925823527535       -5.91051309315852       -9.63955913220872
H           -8.48156733230405       -4.29409425873297       -8.90154904626774
H           -7.43993391131932       -4.69594398641055      -10.28550645631831
C            0.36867561451122        0.54563721248754       -5.43480239158144
C            0.29817109994988        0.28535045724763       -4.04919263421371
N            0.21739977261853        0.06529793703732       -2.92076889891189
H            0.12092174845719       -0.37230067417656       -5.97988492203834
H            1.83797588817382        4.60600879240247       -8.83038865015915
H            1.37537744388280        0.86453221751544       -5.70217320014942
C           -0.66996742995983       -4.49962114644031       -7.88255442536692
C           -0.48448544040898       -3.22052884381810       -7.27985811324970
N           -0.33651966965568       -2.19504134714086       -6.79091084676047
H           -0.15374857530929       -5.25732527013666       -7.29515940025967
H           -1.73283689670612       -4.73382899098088       -7.92665735391050
H           -0.26598481617088       -4.48279568054863       -8.89615816481452
C            3.83475688739849        0.26955045346255        8.82898806240498
C            4.56866899325682       -0.87326920189170        8.37196367619862
N            5.12886701874095       -1.80796676281427        8.01702870636186
H            4.15203477332110        0.50543732679417        9.84906071999310
H            4.06332918964718        1.11781020551079        8.17260558323285
H            2.03436530490431       -0.09104494550611       10.68424444326921
C           -3.87971711944277        0.10429191428997        9.41318921115750
C           -3.65179080011119       -1.17017419463023        8.81108252072634
N           -3.46842711421738       -2.18882633620548        8.31972392878555
H           -2.95540188019278        0.46142991443645        9.86508228765049
H           -4.20466358772860        0.80803520229784        8.64405354283945
H           -4.65148213115949        0.01619348519468       10.17633578609159
C            2.15266614572196        7.46465078306078        6.77352823054789
C            1.44936566532068        7.84287235638608        5.58574287752504
N            0.88451079725146        8.14278492375179        4.63586278662750
H            3.20794968064107        7.32578269878474        6.54118980944926
H            2.04537259157302        8.24548415850934        7.52546375062042
H            1.74085706885466        6.53118150265596        7.15537728374033
C            5.39977667563228       -6.79598599898810        5.09154312953291
C            5.23043474128901       -7.26808538135985        3.74110484819258
N            5.08148471664419       -7.63721746570677        2.66869689191676
H            5.82901358734338       -7.60290635241990        5.69144068859592
H            6.10143857492133       -5.95670760425276        5.07882594459945
H            3.75787385802073      -11.53534700992503        5.30455163610777
C           -9.54584844903691        2.25870664773484        4.65900954336238
C           -8.38222165786310        2.26373299697412        3.82656288158288
N           -7.45061803355394        2.26692491096901        3.16079701480353
H           -9.24041695184471        2.25277449109650        5.70485568914778
H          -10.14176818526470        3.14855664801758        4.45950201614187
H          -10.13916686166467        1.36942261170942        4.44926750893976
C            9.57737831870052        4.08618098545389        4.54725758316853
C            8.91907615108081        5.15711827182920        3.86070394124747
N            8.38837578196727        6.00871641989921        3.30896687485408
H            9.55026763588612        4.27059709918091        5.62045743578839
H            9.06950595024909        3.14801953914794        4.32711783164000
H           10.61293538550768        4.02162505665241        4.21604657282752
C           -0.19009513275557       -7.51030452945985        1.37618414081669
C           -0.23255751897096       -8.20516275146356        2.67676623044472
N            0.36286200837202       -9.10659386446765        3.29591520545609
H           -1.06908455847684       -6.91495439713000        1.14730821903225
H            0.73053993969258       -6.97104440087987        1.16410448229405
H           -5.04114385071221       -7.71755794945718        2.88863962715187
C           -5.09448938232918        8.41599535593577        2.51943752092644
C           -3.37645516498018        7.06305118935527        1.61184493763487
N           -2.99723502644187        5.99403997108327        1.45172311960459
H           -5.47562042760531        7.41609986341078        2.71835046171845
H           -4.94501173128254        8.93696071785502        3.46591555976847
H           -5.81429428372732        8.96210696143289        1.91036534765267
C           11.53632207433905       -2.75685941036355        3.53702448443682
C           11.71970675971930       -1.35086984131259        3.34936906304979
N           11.86389330795009       -0.22427025794540        3.19889479367704
H           11.56897473735859       -2.98912316004454        4.60048063805068
H           10.56726585527236       -3.04976144750369        3.12998575737638
H           12.32642899642331       -3.29943874873251        3.02007741347606
C           -9.49551526981809       -4.17861641597568       -0.75002380540508
C           -8.61137591744959       -3.71546866539863        0.35223750771741
N           -7.52644421132365       -3.03809067416962        0.00617275873517
H          -10.52580062430157       -3.93750005840893       -0.48863171573554
H           -9.27072031036449       -3.80837316134789       -1.75576112888938
H           -9.42634747586932       -5.26865163931383       -0.75101711968319
C            1.71910800400943       10.76620946896558       -0.29542883685931
C            2.82831120161013       10.24197695734701       -1.03037279325806
N            3.71646018574147        9.81997587727070       -1.61783961025014
H            1.55960728910336       10.16252742701414        0.59698532866435
H            1.92824966328143       11.79549074525510       -0.00676459884791
H            0.82520792673051       10.73694989704421       -0.91669711769082
C            3.23967901743947      -12.29168087677508       -3.24024675559768
C            3.33398684943462      -10.90266560429776       -3.57026794067322
N            3.41010797860937       -9.79128340251530       -3.83440116400487
H            3.00987985794689      -12.39631125914403       -2.18038903405815
H            2.44949656290065      -12.75342725947715       -3.83108591712476
H            4.18878103258624      -12.78137834622455       -3.45555441337273
C           -6.77305683655816        3.23560778002542       -1.68931801884266
C           -6.55596078466152        3.37127569342843       -3.09829800317963
N           -6.37140030390800        3.47507160087249       -4.22368172797938
H           -6.78492145486022        2.17904055350743       -1.42508825159325
H           -5.97304815165079        3.73758010456055       -1.14717940304051
H           -7.72724193080289        3.68822730522994       -1.42312838900409
C            8.82935160034231        2.63302440758363       -6.56858030214198
C            9.11186137212383        2.42317396944076       -5.18230703616352
N            9.33746551866512        2.25688376962428       -4.07202330220184
H            7.79850392797576        2.96652489367617       -6.68013165791582
H            9.50305339637395        3.39190194997162       -6.96469037714207
H            8.96970650793410        1.70092693963027       -7.11442427312556
C           -4.21531965222109      -10.48583637509095       -5.69385277914431
C           -3.18179363084668       -9.51644924339026       -5.49477778062453
N           -2.35479525652915       -8.74149124677750       -5.33151850756150
H           -4.69553351909984      -10.70030350690171       -4.73954272764727
H           -4.95370806617963      -10.08803647817653       -6.38899728168586
H           -3.78657291551016      -11.40067477546303       -6.10092956126649
C            1.66182628099786        9.88306873100211       -6.38885218386052
C            0.51512127198266       10.41817366561732       -5.71833412990869
N           -0.40463059238778       10.84243761639234       -5.18416787867827
H            1.35340669111920        9.44658183779521       -7.33784537482683
H            2.38211283028876       10.68002118325888       -6.56891554785293
H            2.11855492330809        9.11349069620802       -5.76816048185103
C            3.73900468075973       -7.63217299081997       -8.87961459961736
C            4.27071831216922       -6.43095753951101       -8.31381453892863
N            4.69359982182891       -5.47032592895592       -7.85648559211983
H            3.21848324631287       -8.19576512390492       -8.10604287053204
H            3.04213722186288       -7.37840943105285       -9.67746339330235
H            4.55151112279618       -8.23451582301415       -9.28427780708665
C           -5.14353965851686       -0.59312626534422       -7.05914055389305
C           -4.87672516424934       -0.92976005375401       -8.42487372836866
N           -4.66277481887423       -1.20150704138154       -9.51678320626140
H           -4.39024119094101        0.10756574752930       -6.70310070387731
H           -6.12744869118526       -0.13187176961707       -6.98378763480197
H           -5.12004174432814       -1.49677255283084       -6.45160071020948
C            2.90666971241543        4.39996873996881       -8.78942641011465
C            3.40135831864674        4.70622153655502       -7.48031632885275
N            3.79655340705937        4.94629566654971       -6.43282463578452
H           -0.33921349225260        1.32918215696642       -5.70258873207951
H            3.42370300459031        5.01351906625292       -9.52622217918415
H            3.08408922864279        3.34746291341227       -9.00644331890899
C           -0.38606983707783       -2.33343951470596      -12.76018432439762
C           -0.05327655494620       -3.36008878121737      -11.82160808698023
N            0.21347547779312       -4.18192571357928      -11.07001103164249
H           -1.18853500464998       -1.71976415420818      -12.35231030896619
H            0.49009688256265       -1.71304346410574      -12.94492262106653
H           -0.71496589825938       -2.78712114859513      -13.69436813311197
