46
 energy: -68.744522685487 gnorm: 0.000658217969 xtb: 6.6.0 (conda-forge)
C            2.91730669825969       -3.20398748121803       -0.19635010521051
C            4.05654100317721       -2.61440276377625        0.35100123230340
C            4.07899326895923       -1.25338423065313        0.55460128948939
C            2.96821785862699       -0.47213276567206        0.23438859019084
C            1.78702771483866       -1.05950799424941       -0.26409619206100
C            1.80769154779892       -2.44622830916589       -0.49369905990132
N            0.65845482780289       -0.31495381727809       -0.54165318551540
C            0.72981013369849        1.02290783685925       -0.87334749389015
C           -0.27571263087181        1.62114079804810       -1.65400775217247
C           -0.22689656957484        2.95688790662965       -1.98087014594943
C            0.81967072748263        3.76222922349783       -1.53159882170820
C            1.82499872893566        3.20294299003359       -0.77601660249119
C            1.79787091348342        1.84434547018665       -0.45696922118144
H            2.90511497415019       -4.26333277759193       -0.39884202022312
H            4.91868444174026       -3.21419810469865        0.59349988708243
H            4.95589452717082       -0.76759261983730        0.95315034563652
H            0.95972694807226       -2.92670877569223       -0.95288208997424
H           -1.08589236559948        1.02227089678888       -2.03414328914236
H           -1.00532246004792        3.38041594893792       -2.59561421376175
H            0.84909836594961        4.80960708422081       -1.78460229700008
H            2.65328009566180        3.79972110213706       -0.42777877512667
S            3.09680333189362        1.23875258341026        0.53432862217193
C           -0.64991031159443       -0.93007964436616       -0.43908871785619
H           -1.16234856782418       -0.96212067016196       -1.40394720094112
H           -0.54686519825301       -1.94891491613797       -0.07318717430389
C           -1.54044572070313       -0.19300560225554        0.57514996454779
H           -1.07951254310175       -0.24347555919222        1.57261121487406
H           -1.66701717572735        0.86563703714657        0.30740744924527
O           -2.78505301125080       -0.85026669743942        0.55676666690201
C           -3.71586296702510       -0.31701726827280        1.47302588585601
H           -3.43036674555665       -0.58572303027712        2.50048040471895
H           -3.75347895509681        0.77699895989575        1.38670035020465
C           -5.09616932266315       -0.87798795194572        1.15331161932507
H           -5.00274529510092       -1.94230717196726        0.89491408350483
H           -5.74829616836707       -0.78466538677834        2.03516441072849
O           -5.63936897070383       -0.15488475663611        0.07078266258632
C           -6.88982795220192       -0.64635723676241       -0.34781558457507
H           -7.62607089208962       -0.59856877793931        0.46411367487826
H           -7.21382777219607       -0.01124900346165       -1.16944676209435
H           -6.81317271514384       -1.68432897103422       -0.69319208750969
C            1.25878988468793        0.00981196795430        5.20584429731115
C            1.14747950267720        0.02018392965393        3.78199462506640
N            1.06450432336863        0.03258581795844        2.63943004997841
H            0.29536898989123        0.26014576123623        5.64926876754191
H            1.56476205379079       -0.98095932325913        5.54068447418966
H            2.00154680266444        0.74340319058490        5.51836026473510
