  28
        -63.16845451
 C          2.0658428605        1.6243959409       -1.2028124522
 H          2.3261092386        1.5942338211       -2.2523754902
 C          2.9802141687        1.5307441608       -0.1183866723
 H          4.0523784087        1.4152394729       -0.2022771028
 C          2.2569830574        1.7342875522        1.0871292809
 H          2.6874048642        1.8128887002        2.0759687786
 C          0.7864974975        1.8965619335       -0.6674020428
 H         -0.1190741463        2.0762910949       -1.2297592871
 C          0.9110979379        1.9859489073        0.7412783314
 H          0.1117576805        2.2345062772        1.4251886310
 C          2.0634093124       -1.6196870861       -1.2036600174
 H          2.3236504369       -1.5865664644       -2.2531937163
 C          2.9776859530       -1.5292676808       -0.1189439397
 H          4.0498223565       -1.4131097907       -0.2024050509
 C          2.2543372216       -1.7355881162        1.0857525759
 H          2.6843284597       -1.8154279444        2.0746357027
 C          0.7840484120       -1.8929216944       -0.6690957848
 H         -0.1217320231       -2.0701287885       -1.2319451557
 C          0.9084953793       -1.9854319906        0.7392617718
 H          0.1086550282       -2.2337007446        1.4225980015
 Fe         1.5162122924       -0.0036526257        0.0683036159
 F         -1.4113912718        0.0016780381       -1.4357200077
 P         -2.2499490132        0.0007055702       -0.0065437959
 F         -2.1824665832       -1.6399820212        0.0052851718
 F         -2.1837802694        1.6409730959        0.0070839891
 F         -3.6684430381        0.0003482122       -0.7812273044
 F         -2.9507087238       -0.0005932913        1.4596212022
 F         -0.7250551036        0.0006916723        0.7813175285
