34
 energy: -234.896708302888 gnorm: 0.000471682065 xtb: 6.6.0 (conda-forge)
C           -1.71013999986089        1.02414999988085       -0.62531000008514
H           -2.34730587440966        1.61133427386518       -1.27015609162718
C           -1.31790771806769        1.37896680464077        0.68831004701614
H           -1.59097186000747        2.28524817525667        1.20128024476121
C           -0.60598511575943        0.28979694188766        1.24585422888317
H           -0.24817107005482        0.22018491614622        2.25893600276710
C           -1.23539487202207       -0.28564714850562       -0.87983390287289
H           -1.43839194676377       -0.87201602387562       -1.76033868935340
C           -0.55374985648480       -0.73948451147997        0.27580232506565
H           -0.15214706744406       -1.72759803741846        0.42566758423194
C            1.39766831012777        2.34251437639510       -1.97646611369794
H            0.90647350295022        2.92620985886242       -2.74131668968849
C            1.71974151534008        2.80391887957708       -0.67675221344995
H            1.50737403345738        3.78542272753079       -0.28902383837060
C            2.46084878258438        1.79326948057728       -0.02097562569697
H            2.92770650434828        1.86481313073122        0.94596026886635
C            1.94278375740600        1.04304896319039       -2.12169871236313
H            1.93804696651362        0.44989822942017       -3.02087841471000
C            2.59812041158399        0.70514759931246       -0.91356441506545
H            3.18323604773366       -0.17755920364165       -0.72309724967888
Fe           0.47731002581545        1.03091233533574       -0.50890405900757
F            6.43457125928517       -0.22140790842883        2.94608424720651
P            6.20613053232705        0.84593294100474        1.74310862411662
F            7.54860987283158        0.29956666183915        1.01180839358105
F            4.86098088218864        1.38220947218073        2.47526516462631
F            7.09012123604902        1.94191471924746        2.54805641884317
F            5.97946996579019        1.90959498915476        0.54267560700218
F            5.31875958483355       -0.25050084077451        0.94142752120455
C            3.21131098293502        0.54051275780708        8.05434071624054
C            3.21564156662846       -0.19710927116401        9.28158143779171
N            3.20667874811859       -0.78743408314852       10.26280918488952
H            3.19507231599813        1.60729217821463        8.27242620763360
H            4.10298983030274        0.29736309385238        7.47774157990798
H            2.32435352836138        0.26953809388960        7.48002095654433
