148
 energy: -234.896708302888 gnorm: 0.000471682065 xtb: 6.6.0 (conda-forge)
C           -1.71013999986089        1.02414999988085       -0.62531000008514
H           -2.34730587440966        1.61133427386518       -1.27015609162718
C           -1.31790771806769        1.37896680464077        0.68831004701614
H           -1.59097186000747        2.28524817525667        1.20128024476121
C           -0.60598511575943        0.28979694188766        1.24585422888317
H           -0.24817107005482        0.22018491614622        2.25893600276710
C           -1.23539487202207       -0.28564714850562       -0.87983390287289
H           -1.43839194676377       -0.87201602387562       -1.76033868935340
C           -0.55374985648480       -0.73948451147997        0.27580232506565
H           -0.15214706744406       -1.72759803741846        0.42566758423194
C            1.39766831012777        2.34251437639510       -1.97646611369794
H            0.90647350295022        2.92620985886242       -2.74131668968849
C            1.71974151534008        2.80391887957708       -0.67675221344995
H            1.50737403345738        3.78542272753079       -0.28902383837060
C            2.46084878258438        1.79326948057728       -0.02097562569697
H            2.92770650434828        1.86481313073122        0.94596026886635
C            1.94278375740600        1.04304896319039       -2.12169871236313
H            1.93804696651362        0.44989822942017       -3.02087841471000
C            2.59812041158399        0.70514759931246       -0.91356441506545
H            3.18323604773366       -0.17755920364165       -0.72309724967888
Fe           0.47731002581545        1.03091233533574       -0.50890405900757
F            6.43457125928517       -0.22140790842883        2.94608424720651
P            6.20613053232705        0.84593294100474        1.74310862411662
F            7.54860987283158        0.29956666183915        1.01180839358105
F            4.86098088218864        1.38220947218073        2.47526516462631
F            7.09012123604902        1.94191471924746        2.54805641884317
F            5.97946996579019        1.90959498915476        0.54267560700218
F            5.31875958483355       -0.25050084077451        0.94142752120455
C            3.21131098293502        0.54051275780708        8.05434071624054
C            3.21564156662846       -0.19710927116401        9.28158143779171
N            3.20667874811859       -0.78743408314852       10.26280918488952
H            3.19507231599813        1.60729217821463        8.27242620763360
H            4.10298983030274        0.29736309385238        7.47774157990798
H            2.32435352836138        0.26953809388960        7.48002095654433
C           -0.22647050001894       -2.99979826643052        7.64692980880083
C            0.13353733504752       -1.75473575037830        7.04316609528223
N            0.41954064900204       -0.75580891662471        6.56082879271764
H            0.65129518205860       -3.64350023682619        7.69163255126829
H           -0.59169300937831       -2.81812501733192        8.65703665542929
H           -1.00528430183715       -3.47864187474602        7.05495906494349
C            1.47974617213481        4.43678976747297        4.78837705282057
C            0.50884786652442        4.91313779145440        5.72745084644911
N           -0.27100349715994        5.29406785442774        6.47434763557890
H            1.40732797248359        3.35372055519198        4.70554281678960
H            1.29790714850953        4.89176670123562        3.81613385425716
H            2.47926675981396        4.70623360104738        5.12731651951563
C            3.89071498026353       -2.71244909257524        3.14694705592082
C            4.24752455864651       -3.36736449716200        4.36836142110812
N            4.51833621532260       -3.89845982818414        5.34620499559423
H            2.84861391839942       -2.40411783509079        3.19537575112898
H            4.52274861349778       -1.83679176066511        3.00509735265120
H            4.03663500100959       -3.39542025570086        2.31185409879615
C           -4.13688407087709        1.50102980827853        5.71708684590984
C           -4.62438690112378        2.41774125734677        4.73085600810063
N           -5.01393951118461        3.14867217239376        3.94018129993520
H           -3.30304476657859        1.95309493000582        6.25280164991447
H           -4.93518785022249        1.26730587436390        6.42027997512372
H           -3.80265620142917        0.58595263751802        5.22970621493668
C           10.06711531432168        3.62515867550651        3.23842416181112
C           10.96781462107052        2.51417042218426        3.30693817857494
N           11.69305701436721        1.62973995871797        3.36276280913468
H           10.07329877558230        4.15884350351251        4.18746963554252
H           10.37758356335553        4.29463413170072        2.43772096030791
H            9.06226584724602        3.25688307561182        3.03499290719939
C            0.61240709894880       -7.59155990677018        4.53061392884484
C            0.56467967038250       -6.81874548879800        3.32827858491844
N            0.52291227234001       -6.20184599227649        2.36451925926868
H            1.46994219432788       -7.28142441443069        5.12694065918120
H           -0.30415664724771       -7.43564240548927        5.09828564723314
H            0.70871149861042       -8.64684683472031        4.27746161132119
C           -2.68754355554348        7.99727925938478        2.97557229486336
C           -2.18057949060761        7.31639909124935        1.82245527367621
N           -1.77671400812706        6.77198504059696        0.89956463994994
H           -1.85833874166454        8.41767502463681        3.54336957734782
H           -3.35597476776992        8.79796978354642        2.66177416188753
H           -3.23246974940799        7.29217382200941        3.60206613863447
C            9.10710236745304       -2.68821598271947        2.76058637379743
C            8.65224707750387       -3.52210673458711        1.69001833612328
N            8.28555071117360       -4.18779443099440        0.83345481724600
H           10.17800839880057       -2.51744566767350        2.66411061306225
H            8.58310094906138       -1.73345879073035        2.71621169265859
H            8.89592959941433       -3.16916317855895        3.71450331921135
C           -4.25822207290975       -4.35219585927519        1.03826874031356
C           -3.89974732623422       -3.93379658381939        2.35985636654303
N           -3.61356794948098       -3.59723954004331        3.41643921112442
H           -5.15415506949257       -4.96997707567223        1.08434039486588
H           -4.45172680969217       -3.47792265037563        0.41848293049185
H           -3.44351232690831       -4.93110837166459        0.60561700003325
C            6.18987522397681        5.31808674969946       -0.29926432911983
C            5.50488369162021        5.90497043042790        0.81183670328612
N            4.94810354734031        6.37707347445056        1.69420219864750
H            5.62722146949640        5.50140516060905       -1.21316735982957
H            7.18309430523381        5.75487734990378       -0.38884176100696
H            6.28053035591370        4.24423280276918       -0.13902166771455
C            0.97691127213677       -6.35238433008159       -0.92689194721739
C            0.29440869052630       -7.51697031314042       -1.40084225829391
N           -0.25794025441782       -8.44446050128103       -1.78469508051019
H            0.82790564293963       -6.25921872209257        0.14967836367163
H            2.04115238432242       -6.44274723855534       -1.13970261631916
H            0.57926470165029       -5.47255536202965       -1.42947248233556
C           -5.72523105849968        4.59077878947865       -1.33251051287370
C           -4.76290372928979        3.61041410637796       -1.72910956220542
N           -3.99222667353503        2.82497126775801       -2.04548783802131
H           -5.84736591768078        4.55552951271790       -0.25053316735742
H           -5.37648539147915        5.58029299092451       -1.62510464099738
H           -6.68014102570400        4.38266453948409       -1.81359985860509
C           10.12107688906588        0.52675857803741       -1.39041223867197
C           10.22348286322585        1.92258074599112       -1.69093661383544
N           10.31209123120204        3.03852084934332       -1.93191155939538
H            9.31834920414975        0.37383294762275       -0.66999743310416
H            9.90078970433198       -0.02684454457805       -2.30172867837921
H           11.05991558414704        0.17665648774070       -0.96407332679646
C           -2.33755266965827       -6.10023113548715       -5.69475357975032
C           -2.76657589261753       -5.15945011250537       -4.70418218536700
N           -3.10709302246397       -4.40372479256088       -3.91447279200786
H           -2.80656119226492       -7.06516082327844       -5.50660459589549
H           -2.62036620363448       -5.74114530778296       -6.68352303203916
H           -1.25519359699827       -6.21038760356942       -5.64284667374323
C           -0.49166697471246        7.01453376039821       -4.46658388167485
C           -0.16263257758745        5.66300192330112       -4.13759166274178
N            0.09621726002600        4.57895392511591       -3.87584413235756
H           -0.80746287489833        7.53734392952326       -3.56441443531424
H            0.38346988671669        7.50865021707763       -4.88697887757563
H           -1.29846287530427        7.02479933921333       -5.19822804319788
C            5.73879031587104       -2.93320980115623       -3.61813138526074
C            6.02143060628795       -1.75206601522767       -4.37370824745743
N            6.23522258446542       -0.80882522788392       -4.98779759425886
H            5.82694865481069       -2.71610227623016       -2.55485076707609
H            4.72446192354692       -3.26499536626216       -3.84684568571513
H            6.44674696842053       -3.71639931464886       -3.88508750368874
C           -2.47194671987513        0.30152457173043       -6.27519424943147
C           -1.50066275475766       -0.62346230428311       -6.76934824893089
N           -0.72098162422680       -1.36254649833544       -7.16660427238096
H           -3.16063117232885       -0.21535044847291       -5.60835499291147
H           -1.96878570279909        1.09993232255614       -5.73189148691466
H           -3.02616165509420        0.72515640886114       -7.11189341310742
C            4.42718421563938        3.44943755442616       -6.67290837110880
C            3.80030759223423        4.60436262441265       -7.24207360030790
N            3.29608522193858        5.52696019733464       -7.69585053610880
H            5.49567859121387        3.47175264032115       -6.88336292414440
H            4.27327955143530        3.44306402738925       -5.59478246143116
H            3.99337300741773        2.54920969424472       -7.10568706147745
C            2.07354857586125       -3.07530251072033       -7.30190013556563
C            2.43164504393801       -3.37936987834282       -5.95374540908826
N            2.71386675329608       -3.62241704469268       -4.86973976184839
H            1.13242439214060       -2.52275471165707       -7.30828814820463
H            2.85527963409882       -2.46694010240383       -7.75495483958244
H            1.95818527666977       -3.99887934196486       -7.86718030956434
