47
phenothiazine_p1_gas_secondrun.log	Energy: -1382631.7667888
C         -1.69275        4.15258       -0.62191
C         -2.67586        4.09415        0.37451
C         -2.70718        3.01315        1.23027
C         -1.76570        1.97865        1.11038
C         -0.76672        2.02447        0.10739
C         -0.76356        3.14104       -0.75530
N          0.16694        1.01108       -0.05786
C          0.43002        0.05447        0.91263
C          1.62756       -0.68703        0.86328
C          1.85813       -1.70321        1.76172
C          0.90607       -2.03460        2.73969
C         -0.25350       -1.29859        2.83636
C         -0.49083       -0.23709        1.95038
H         -1.65417        4.99958       -1.29728
H         -3.40674        4.88787        0.47327
H         -3.46682        2.94307        2.00141
H         -0.01596        3.22284       -1.53039
H          2.37983       -0.43985        0.12918
H          2.78870       -2.25570        1.70123
H          1.08372       -2.85654        3.42327
H         -0.99634       -1.52978        3.59131
S         -1.97136        0.62116        2.15887
C          0.68692        0.79137       -1.43217
H          0.81012       -0.28274       -1.55798
H         -0.12212        1.07305       -2.10408
C          1.98833        1.52389       -1.77139
H          1.97850        1.79812       -2.83840
H          2.07755        2.45399       -1.18983
O          3.06887        0.66225       -1.49697
C          4.33362        1.27768       -1.37734
H          4.68593        1.65696       -2.34984
H          4.28915        2.12301       -0.67277
C          5.29674        0.23320       -0.85070
H          5.26636       -0.65203       -1.50626
H          6.32401        0.63453       -0.86949
O          4.90520       -0.09918        0.46329
C          5.66504       -1.14741        1.02171
H          6.73344       -0.88820        1.08988
H          5.28025       -1.32363        2.02927
H          5.57289       -2.07541        0.43565
P         -2.09229       -1.84987       -1.07784
F         -2.04804       -0.20961       -0.87468
F         -0.47476       -1.88818       -0.78388
F         -1.77811       -1.63033       -2.63908
F         -2.09867       -3.43733       -1.25031
F         -3.66746       -1.76266       -1.33728
F         -2.34422       -1.99658        0.52358
