141
 energy: -203.684335597294 gnorm: 0.005236717970 xtb: 6.6.0 (conda-forge)
C           -1.64771000026417       -0.47374000000012       -1.11823999909675
H           -1.67980428550715       -0.72740690044688       -2.16264992035766
C           -1.71086137060293        0.82988720142294       -0.57658111880447
H           -1.82712911670207        1.73899108999554       -1.14126317632894
C           -1.69756938870049        0.71645209369392        0.83566229625753
H           -1.79050618086815        1.52030205338213        1.54498697170299
C           -1.59058215873921       -1.38955678718514       -0.04403268134741
H           -1.59198038516465       -2.46209120678276       -0.13067274237569
C           -1.62352338524870       -0.65299404980384        1.16404985662958
H           -1.65664133848342       -1.06022556210778        2.15889029462188
C            1.74161409464323       -0.32447855234369       -1.29959305210112
H            1.68602707009290       -0.57040839410738       -2.34381716373210
C            1.76630125788562        0.97569550525240       -0.75005029901057
H            1.76175006136572        1.89699112181259       -1.30749089103095
C            1.91221932083172        0.85417449815502        0.65427905470193
H            2.02854904791555        1.66588266864620        1.35208540159873
C            1.86777380808962       -1.25010452181987       -0.24040064808747
H            1.95985694621362       -2.31698012283580       -0.35057401289983
C            1.97647389376564       -0.51929077055721        0.96822794426627
H            2.14995534358324       -0.93325004879241        1.94657499689670
Fe           0.10332511096974       -0.10723834734014        0.00692777807344
C            1.84174962220433        1.18104172218681        6.25070596261360
C            2.01411177068541        1.22390105107380        7.67111120685082
N            2.15118146278960        1.25886316942190        8.80759751942312
H            1.58243944755468        0.16734455244789        5.94809842970498
H            1.04256086791966        1.86633473786894        5.96364966601208
H            2.76781282854830        1.47969061523201        5.76041067406365
C           -3.30966798908539       -1.09940630348204        6.27888292200249
C           -2.60721912377600       -1.76024549853733        5.22663903584339
N           -2.04910511265402       -2.29205624621854        4.37950807440874
H           -2.61483452332964       -0.48379099185814        6.84903960209805
H           -4.08587147069493       -0.46511542127337        5.84739699263766
H           -3.76601485286013       -1.83922075895787        6.93587224794650
C           -0.37581472686356        6.01196158284912        6.08942509491390
C           -0.42674678628393        4.61556863174886        5.80089829399280
N           -0.47518840728167        3.49479747030618        5.56423697212101
H            0.64374210928094        6.37179828131275        5.93943185966606
H           -1.04796796498196        6.54676430216853        5.41733902457162
H           -0.67311491781788        6.18271561420933        7.12283232528066
C            0.26775942034712       -3.40521208692724        2.31091340563460
C            1.44114252061645       -3.57885257371216        3.10681104618090
N            2.37834450802826       -3.71213065514124        3.75290633598135
H           -0.56273791782747       -3.13444953395497        2.96199018671098
H            0.42528465825702       -2.60946944667641        1.58255562822754
H            0.03824896909539       -4.33638645514932        1.79465994016872
C           -5.57712954307021        3.31982740145148        3.85550797203672
C           -5.56377678203703        2.00738328715616        4.42487705394515
N           -5.55528129032264        0.95519455768806        4.87712966926029
H           -6.47338716277654        3.84831891417852        4.17727736207996
H           -4.69647415830330        3.86609915434344        4.18957555157276
H           -5.56743863327029        3.24284286338272        2.76946130397589
C            4.23065704686340        6.11234924387500        3.48623141982659
C            3.39604152479221        6.61291590398585        4.53140397890647
N            2.71835522643491        7.01998190429718        5.36179317917184
H            4.90385777666942        5.35577377938081        3.88639139562279
H            3.59934026602625        5.66759135761050        2.71457940233613
H            4.81086138806684        6.92787998997451        3.05645286865950
C           -2.42127928613448       -7.26384642950769        2.73540510767813
C           -1.45138852561312       -6.89522755668503        1.75554209060572
N           -0.67439945877473       -6.59137306059812        0.96966761586206
H           -2.05327967642483       -6.99825524087176        3.72560391590646
H           -3.35233903690817       -6.72933282681891        2.53923423163261
H           -2.60013673873213       -8.33692733005282        2.68716037090789
C           -0.83277823523668        9.30452800883841        2.17971778323597
C           -1.57036321150766        8.37038352847916        2.97026653908877
N           -2.17172764046110        7.62447468637591        3.59816258531714
H           -0.86081395019112       10.28495280138732        2.65322016044066
H            0.20009827823576        8.97047117430754        2.09562533930911
H           -1.28141776897275        9.36557068086111        1.18692636445669
C            5.29891202976134       -2.08304408660065       -0.00351603696391
C            6.36540584553367       -1.58279128309898       -0.81221087057994
N            7.22678218024530       -1.18045224557169       -1.45219146639432
H            5.70056455112473       -2.48765066961329        0.92420968125880
H            4.60188562578595       -1.27671107571517        0.22237733003922
H            4.76708735499657       -2.86951114982194       -0.53963139682316
C           -6.47382229479645       -3.30351694674305        2.20424537451541
C           -5.76774103024831       -4.54595176021373        2.14790403982641
N           -5.20520316316515       -5.54244336391914        2.10325288266801
H           -6.76894017368195       -3.10228687578415        3.23509008306866
H           -5.82388858729075       -2.50202802735189        1.85058235091580
H           -7.36240163510842       -3.36078549544416        1.57447074081686
C           -0.08024992006946        3.83973348697629        0.40011851817566
C            1.09477299088589        4.41618719189899        0.96620051210451
N            2.03684713484572        4.87938772348878        1.42630541433898
H           -0.92909265347680        4.04396200036585        1.04991266900239
H           -0.26124550381870        4.28435754456746       -0.57966385320866
H            0.05081587824248        2.76119686487732        0.29655315626764
C            1.36075974650805       -6.04507403973281       -1.64707049542862
C            2.44700150475037       -5.13620720442590       -1.47239038115308
N            3.31753149673659       -4.40733308637095       -1.31922770574671
H            0.85098228864075       -6.19770140133952       -0.69533542458573
H            0.65396803664716       -5.63567573749573       -2.36966723444470
H            1.74055615777642       -6.99824062152808       -2.01137395368209
C           -4.92959980998359        8.14512115233343       -0.82470752045294
C           -3.63578090604832        8.74857769649489       -0.75781515138437
N           -2.59904962364559        9.23252994017562       -0.70056323351673
H           -5.29082362500186        7.95540162433052        0.18553351232268
H           -5.61779066821886        8.81514327013859       -1.33894565536490
H           -4.85970564239321        7.20432687144364       -1.37000549581066
C            5.51918538331693        3.46459303608169       -3.75017305882083
C            4.97700514142255        4.72786250604087       -3.35771929246780
N            4.54476451467227        5.74239832103266       -3.04596420154051
H            5.61445351837382        2.81900841287338       -2.87840608553075
H            4.85205741861776        2.99800444772489       -4.47665643529407
H            6.49887392478057        3.61315066421234       -4.20135033715867
C           -3.63963226978082       -6.01811829290517       -3.31437824802585
C           -2.30353861488439       -5.56481036873666       -3.54296634861540
N           -1.23393446587489       -5.20005883935241       -3.72930717211770
H           -3.90550174397439       -5.85138545675111       -2.27119288565836
H           -4.32222510575929       -5.46686797742482       -3.96030850955123
H           -3.70358692806861       -7.08177859375464       -3.54063627660723
C            0.07098006463414        8.05301939005730       -2.44183499196092
C           -0.35001440420922        6.68919260499291       -2.38685245085066
N           -0.70043595480078        5.60038498533713       -2.32416659720273
H           -0.66822230145795        8.67164051731660       -1.93072371591209
H            1.03803185884215        8.15351885632497       -1.95148874565278
H            0.15768210095298        8.36698954868060       -3.48084388461305
C            5.19245361817142       -2.57848360161302       -5.77978837442860
C            4.87843712900044       -3.20518735771657       -7.02823733775471
N            4.62244578511239       -3.70860119678999       -8.02461835498685
H            5.75761222545959       -3.27153357244518       -5.15715019390030
H            5.78721017671241       -1.68313076280463       -5.95800773895415
H            4.27114380612569       -2.30216678767969       -5.26809809704457
C           -4.12204896554161       -1.69887980165184       -9.82086646553526
C           -3.84273048180896       -2.76895840203332       -8.91249721740742
N           -3.62110981483775       -3.62231892729153       -8.18165370169689
H           -5.13310083213588       -1.33091278907263       -9.65089105668250
H           -3.40777861019732       -0.89301912883990       -9.65508024824034
H           -4.03237462765392       -2.05953228472482      -10.84481685072262
C            0.80334334147130        1.90981901347338       -6.24309999566423
C            2.21171438313049        2.06325501854595       -6.05603288991406
N            3.34110195466848        2.18638951938328       -5.90185550768267
H            0.27482035027560        2.35763907356431       -5.40087349226684
H            0.50434709359842        2.40367755028429       -7.16833964164196
H            0.55928815513970        0.84787795798877       -6.30243176147495
C           -0.56299668166840       -3.74785678134475       -6.69260581398194
C           -0.27748478478415       -2.35541678306654       -6.57259758351175
N           -0.06403490542032       -1.23266281970590       -6.48298790239504
H           -0.60236446175083       -4.20050217683224       -5.70123063216254
H           -1.52972259551921       -3.87240239756096       -7.18297725894089
H            0.21339954227893       -4.23046869224763       -7.28413842141873
