170
 energy: -282.797733048346 gnorm: 0.000654867464 xtb: 6.6.0 (conda-forge)
C           -3.53560999941069        0.97470999786923        0.77917999981052
H           -4.53466121555458        1.13337903869887        1.14464855382850
C           -2.99992028128798        1.48338964771307       -0.43141565474131
H           -3.50841977179396        2.13585445128679       -1.12076253187858
C           -1.59930233942446        1.20681223894326       -0.44193266595165
C           -2.52788024076134        0.23906844663539        1.42009926992147
H           -2.60055113546680       -0.24072926209045        2.37868479647879
C           -1.31907326483243        0.41009139407278        0.68401646391475
H           -0.34818583653563        0.05698099951106        0.98183422245542
C           -2.94934438826453       -3.05264481261359       -1.44822483883842
H           -3.76813877712048       -3.73723628546637       -1.30101511820255
C           -2.78206097813218       -2.17239973831947       -2.55779047190945
H           -3.43756308812486       -2.09344244724049       -3.41183670012763
C           -1.49550641419907       -1.59244932457143       -2.45759024002230
H           -1.03623533352792       -0.95023972766658       -3.18707320148923
C           -1.81055218555910       -2.93756652408146       -0.63444529100671
H           -1.60342421336369       -3.49709591906335        0.26051085775634
C           -0.89827649297639       -2.04988446974307       -1.27011030452685
H            0.10403180089261       -1.84450278225620       -0.93938928293105
Fe          -2.87587862389000       -0.93808095418586       -0.70420070706465
C           -0.61279972773653        1.72028173711523       -1.44057219556107
H           -1.08972657912909        1.83763758997695       -2.41791591308928
H            0.22895977892052        1.03088134644054       -1.51697034063578
N           -0.05586755833657        3.06074302650999       -1.07129816717299
C            0.63007070366774        3.00423563487703        0.22849668379113
H           -0.06914699598846        2.71265170824798        1.00849101379174
H            1.44606702692392        2.28301328104213        0.19360659080655
H            1.04245330085171        3.98564042142161        0.45356586278792
C           -1.13589050465545        4.06245988528364       -1.01466485525164
H           -0.70184086881726        5.03750306909178       -0.80355878284087
H           -1.64497070195589        4.09150818416322       -1.97586476748004
H           -1.83713738443402        3.80276727419653       -0.22597805210379
C            0.90855277977023        3.46056568298473       -2.10880065247800
H            0.41536715131316        3.47675491072030       -3.07858532102429
H            1.29249278316644        4.45214584747317       -1.87804777513713
H            1.74547562748499        2.76403977394803       -2.13153883166297
P            3.08602550749286       -0.95748821942229        0.04911719849111
F            2.78809835023234       -2.38336819026405       -0.68109959118506
F            2.13483192397467       -0.22186814987951       -1.04396453717694
F            4.36644459488997       -0.76805986719561       -0.90295912801711
F            3.32749309006589        0.44849491305943        0.79642653006344
F            4.01110656937116       -1.71874671602143        1.14706928186984
F            1.77781321445287       -1.20133746287074        0.98160479232523
F            6.07305869128108        0.91611418056956       -2.18724010897049
P            5.64383188189845        2.19888997994352       -1.29909213448823
F            5.52409645172897        3.08005793367541       -2.66614563069305
F            5.81103155480845        1.35107946856892        0.06244132230840
F            7.21996430995404        2.62168417388041       -1.19775552507692
F            5.25793260015457        3.51637559457188       -0.42999952157959
F            4.08090108268709        1.83533312925908       -1.43230584496416
C            4.85663342497783        1.82421552625822        3.50935080197953
C            3.57268352567334        1.55586959903749        4.07985769968720
N            2.54579982299909        1.35925446888516        4.54687769376640
H            4.85375547752547        1.52255965281893        2.46201064733281
H            5.06988912757939        2.89012432812519        3.57487060980741
H            5.62090916854835        1.26095263320141        4.04219114051941
C           -0.31610683477049       -2.32155304631878        6.51605932148763
C           -0.58689011711590       -3.24708506599460        5.45768037015254
N           -0.81994306682924       -3.99101982905551        4.61889540809077
H            0.76014647902396       -2.23496060306791        6.65795493512386
H           -0.72063932862853       -1.34450514079280        6.25646769337948
H           -0.77671487913402       -2.67871590909880        7.43626424792301
C            1.20135709282884        6.06238030773769        5.36452944596276
C            2.40237643420111        6.78331227282608        5.06444526174051
N            3.35824850309323        7.36690977317341        4.82556331343989
H            1.39871833801770        5.35084458738751        6.16506914189371
H            0.42864217865876        6.76228188943526        5.67957720785483
H            0.87176655798759        5.52479505891576        4.47687417110995
C            4.60153986713023       -3.95279058203013        3.84532867724015
C            4.87460538525189       -3.28643748799367        5.08235438165943
N            5.08626904019008       -2.76361317380563        6.07898324391888
H            3.75077473799347       -4.62088195979932        3.96917211578904
H            4.37090053174459       -3.21550184780492        3.07684289220597
H            5.47564531968979       -4.52733713587210        3.54268917457104
C           -8.82805341308864        1.42229748191790        5.93690409527591
C           -8.53386230249394        1.06572700446847        4.58063277435414
N           -8.29675407470248        0.78026182451805        3.49793881059262
H           -7.98894769114511        1.14670554129667        6.57462037425822
H           -8.99588946770838        2.49659890497341        6.00287814238712
H           -9.72238513839302        0.89472846610693        6.26621108817950
C            9.48700445617855        3.31842874587718        1.43222081398261
C           10.51907807548294        3.83440866733918        0.58434441237223
N           11.34098236103184        4.25889096993965       -0.09046755807115
H            9.89046981930082        2.52323689359423        2.05671886022605
H            9.09740225614764        4.11799673950944        2.06053927982459
H            8.68292588950335        2.91897509082997        0.81437669479153
C            0.17212436259147       -8.17092716349064        0.94877773627950
C            0.29583626880444       -7.68296842533639       -0.39027886130666
N            0.38815810296432       -7.29336746962026       -1.46340773879239
H            0.97488327913307       -8.87932802184367        1.14979752957735
H            0.24532182515511       -7.33591002605666        1.64478331179542
H           -0.79083569792805       -8.66525718996309        1.06966113859171
C            2.39661809019280        8.47730677175526        0.09508528607435
C            1.70244067050293        7.23444817504937       -0.00782697796529
N            1.12936675342202        6.24634364045544       -0.09108315699931
H            3.43712273239790        8.29001986441313        0.35756277873390
H            2.35086073134480        8.99516111850180       -0.86207964252552
H            1.93289583148333        9.09067638473256        0.86667566908008
C            7.25810206850582       -2.08018596688226       -0.55592871125741
C            8.44229221055889       -1.82342819605141        0.20218232986734
N            9.39403039713252       -1.62753222043779        0.80847226775573
H            6.47311312969211       -2.44860910578162        0.10233879168859
H            6.90469654901216       -1.15592454649579       -1.01117652403078
H            7.46212396672408       -2.81498309393155       -1.33234985692038
C           -7.23502181230904       -1.13656963364332       -0.95728034557320
C           -5.82844065810871       -1.05826820092453       -0.85205284182358
N           -4.67997336508655       -0.98970640382137       -0.76101098039765
H           -7.62914903564167       -1.77516189845223       -0.16576563905874
H           -7.66441670454491       -0.13874944336764       -0.85969928799107
H           -7.50277618571872       -1.55142272456577       -1.92981775371971
C            7.35556808538538        6.18101707994286       -2.48040640234331
C            6.36973255764957        7.00232936125138       -3.11144042845035
N            5.58432838727076        7.67109391125272       -3.60860671436803
H            7.68179118764608        6.64832399080035       -1.55265623551477
H            6.92621550663742        5.20398489899219       -2.25907103362207
H            8.20965731036696        6.05341822229392       -3.14351497623298
C            3.28003125913567       -5.60720279271041       -1.94858954299139
C            4.10505042794841       -6.26020940013558       -0.98056596079080
N            4.75657526357275       -6.79577231904374       -0.20504970758016
H            2.30833273166462       -6.10207004063219       -1.97998582950021
H            3.14847661020319       -4.56386882458331       -1.66481173731876
H            3.75674955139412       -5.65942815936128       -2.92575551474854
C           -2.71716618414547        3.41017672122327       -6.48622270829078
C           -2.23026804790891        3.18050384564938       -5.16501534363108
N           -1.85426880828399        2.99758994805924       -4.09877315632277
H           -2.56945638710540        4.45729596738055       -6.74802074363038
H           -2.16852986387291        2.78409770237187       -7.18847528713002
H           -3.77840282836930        3.16791765835579       -6.52844318068933
C            9.08891825258041        1.26621903320213       -4.04934277641020
C            8.63197466128380        1.91660816063708       -5.23922724445009
N            8.26807077608536        2.43808713499869       -6.19153004776946
H            8.33430853195460        1.37846266687827       -3.27129519422264
H            9.24305809512624        0.20677123429981       -4.24731787024529
H           10.02028395180850        1.71961948281822       -3.71366785139702
C            0.10300142910452       -5.11673273418022       -6.02099553545461
C           -0.33776457152060       -4.78945504555992       -7.34319664455647
N           -0.69282475076726       -4.52940697671063       -8.40040251388533
H            0.70117374717213       -4.29730020889401       -5.62447660296242
H           -0.76031920098937       -5.28107600981993       -5.37819348788847
H            0.70754327411276       -6.02224692512738       -6.05285817932836
C            1.03421435447301        9.31443739654464       -6.08297924647643
C            0.26371038319953        8.45326537624764       -5.23584587546643
N           -0.35494504670305        7.76896618904881       -4.55805900880176
H            0.73292555212328       10.34859034204639       -5.92102476034591
H            2.09169973865985        9.20287998428742       -5.84723065576030
H            0.86491067610948        9.04492724166367       -7.12473729608072
C            3.60054311814001        0.06875205933044       -4.27701748579995
C            4.40291665043220       -1.02255315717699       -4.73125796900806
N            5.02702361886135       -1.90331349110590       -5.11542514789167
H            4.20623139892828        0.97330630725995       -4.24676877770848
H            2.75287680787301        0.20225379673539       -4.94937164751812
H            3.25741189265970       -0.13994199231965       -3.26529255578461
C           -4.59395052201917       -1.55555482893486       -7.92453374938409
C           -4.52959168543413       -1.64549412335994       -6.49842734273091
N           -4.48575806810890       -1.70840375457519       -5.35614497097115
H           -5.38465245136138       -0.86329669807950       -8.21154583571496
H           -3.63865039454845       -1.19992317393162       -8.30864721477372
H           -4.80274273771609       -2.53964002058832       -8.34233749322552
C            3.67337549321304        4.78677524107052       -7.23853772498167
C            2.50136817663607        4.77703163304072       -8.06032568684821
N            1.56266888996495        4.77082940347873       -8.71601826922452
H            3.38567892404496        4.77859241223865       -6.18800172722014
H            4.27819105439017        3.90609403076298       -7.44961902244052
H            4.26060317213914        5.68026956094943       -7.44537883035210
C            2.54153281045061       -0.56695247543759       -9.09502812926314
C            1.88888999029139       -0.22296285409484       -7.86980349666330
N            1.36215919958396        0.05568816546969       -6.89162587680524
H            1.90247148073405       -0.29950832957654       -9.93543265453896
H            3.48475997884774       -0.02662613729067       -9.16612885746500
H            2.73852039864032       -1.63807631199500       -9.11115756160811
