43
Ferrocene_NH4+pf6_p1_secondrun.log	Energy: -1759855.7829265
C          3.37247        1.23708       -0.65892
H          4.45119        1.25021       -0.61087
C          2.47728        1.66366        0.36836
H          2.75745        2.05618        1.33554
C          1.13535        1.47368       -0.09657
C          2.58370        0.79729       -1.76243
H          2.95937        0.38421       -2.68716
C          1.21685        0.93163       -1.41644
H          0.37857        0.58384       -1.99828
C          3.41603       -1.83749        0.73222
H          4.48814       -1.74604        0.82841
C          2.44021       -1.44365        1.70311
H          2.64797       -1.01049        2.67067
C          1.14768       -1.73401        1.16704
H          0.18668       -1.52590        1.61382
C          2.71575       -2.37065       -0.39104
H          3.16695       -2.72253       -1.30774
C          1.32478       -2.30986       -0.11866
H          0.51391       -2.57256       -0.78014
Fe         2.19501       -0.35398       -0.02372
C         -0.09297        1.69627        0.73456
H          0.19702        1.92734        1.76165
H         -0.71793        0.80801        0.74165
N         -0.99820        2.84395        0.29313
C         -1.47242        2.66141       -1.12773
H         -0.62806        2.79680       -1.80105
H         -1.90581        1.66727       -1.22064
H         -2.22409        3.42483       -1.32991
C         -0.28719        4.15611        0.42429
H         -0.95523        4.95433        0.09963
H         -0.00938        4.30812        1.46815
H          0.60477        4.14210       -0.20281
C         -2.20629        2.81679        1.20292
H         -1.86867        2.91614        2.23510
H         -2.85198        3.65500        0.93994
H         -2.72320        1.86922        1.05185
P         -2.43503       -1.25946       -0.13607
F         -2.98703       -1.69838       -1.55281
F         -1.08929       -0.59654       -0.88565
F         -1.60508       -2.62782        0.03586
F         -1.78362       -0.72271        1.29597
F         -3.68443       -1.83244        0.63745
F         -3.14527        0.21034       -0.28262
