163
 energy: -251.545862111997 gnorm: 0.001642134499 xtb: 6.6.0 (conda-forge)
C            3.37247000052315        1.23707999907329       -0.65892000070851
H            4.39903891842043        1.54869014039912       -0.72302896620127
C            2.43649249198174        1.65496421740797        0.31249102363368
H            2.62035816231393        2.34442630629265        1.11676430612183
C            1.18490299462634        1.05037195806694        0.00508671331566
C            2.71194246506540        0.37996664680694       -1.56898641261427
H            3.15201622631825       -0.08207349312691       -2.43266142096678
C            1.36670334995628        0.26020445405710       -1.16506671554408
H            0.60833271818416       -0.32251587452506       -1.65301800203596
C            4.05326614631663       -1.60261811433534        1.31442184861642
H            5.11309180689928       -1.42229322606338        1.33529360578157
C            3.11535516186617       -1.15350363729784        2.27078997894146
H            3.33244030318066       -0.57451124539607        3.14939458819757
C            1.84737244579606       -1.65396384608737        1.90076893458174
H            0.92532019848905       -1.51766987030596        2.43444330291996
C            3.36298016139057       -2.38202307393019        0.35595500820874
H            3.80409171863380       -2.88554119977159       -0.48537626227361
C            2.00064887370508       -2.41450054756465        0.72086778472619
H            1.21133813053607       -2.93388233525449        0.20871479486077
Fe           2.57422077946151       -0.44182165651983        0.36688304290389
C           -0.07861619764041        1.19524874695718        0.78632990595949
H            0.15301808089163        1.45588278415677        1.82048585550037
H           -0.61985077524603        0.24819481149246        0.76916377546269
N           -0.99610472355748        2.25678205545880        0.25668043501478
C           -1.36759699900815        1.95998748188709       -1.13528566115837
H           -0.48538650796920        2.00056671726842       -1.77056859156537
H           -1.80113112543066        0.96310256392668       -1.19396763598519
H           -2.09711050243855        2.68664508811617       -1.48565403186460
C           -0.32488936262858        3.56582486230327        0.32537168152829
H           -0.98644431048604        4.33822202530345       -0.05981174668541
H           -0.07959846291276        3.78435881551429        1.36315049395810
H            0.58706648128729        3.54151597703746       -0.26696282068271
C           -2.20458525428985        2.28734101951808        1.09644270898911
H           -1.92063656289699        2.49982920459352        2.12563345675608
H           -2.88023271663455        3.06289097097784        0.74200653398878
H           -2.71063122621972        1.32456724806407        1.05172615122045
P           -2.29347230685851       -2.48644944825104        0.08063932104836
F           -3.26672897005353       -2.79612711031915       -1.18441930520208
F           -1.29465163342551       -1.67236905298048       -0.89015712270829
F           -1.48303129499935       -3.85621744517277       -0.20593783950207
F           -1.35281996409713       -2.16606103475352        1.35320753093928
F           -3.31977342011940       -3.29426938035863        1.04943079798733
F           -3.11705585220673       -1.11013961179652        0.36373351168086
C            5.33406307106224       -0.58195202865849        8.42115741834035
C            4.14387443056289        0.03185559578413        7.91572255103443
N            3.19319825546581        0.52462639717947        7.50991149282748
H            5.83836356924411        0.10623064681961        9.09831201201425
H            5.07421235799958       -1.49639944291364        8.95280165322894
H            5.99754358232679       -0.82365514614042        7.59222714714387
C           -1.24956900496226       -1.82771581472006        4.89515468908629
C           -2.50531042176803       -1.16552710357431        5.07804617709541
N           -3.50861538001375       -0.63201001530013        5.21986999393192
H           -1.21851268256259       -2.73014212742769        5.50388392260014
H           -1.13988990037868       -2.09715729383685        3.84496794988196
H           -0.43885424349253       -1.16374587196920        5.19115089530450
C            0.26391257449029        4.16953583282509        5.84832224548876
C            0.01766647745327        3.56064635010871        4.58208793388011
N           -0.18247678202006        3.07694412997586        3.56315145083567
H           -0.08982541056807        3.51389691181073        6.64318461683962
H            1.33316978463807        4.33921826684152        5.96806439046366
H           -0.26200981085418        5.12230935549442        5.89741879601813
C            3.89982574737343       -6.10511176206792        4.02646055622362
C            4.73087546355649       -5.29746149162487        4.86779692720568
N            5.39693558296933       -4.65311166952740        5.54016184941606
H            3.85535519578077       -7.11886244501037        4.42238209461819
H            2.89580205172890       -5.68468075379672        3.99375219575428
H            4.31470479614312       -6.12665494954858        3.01993031014730
C           -6.45429993243020        3.31182685927254        4.08661076148900
C           -7.31429743123926        4.22504975637874        3.39610691516792
N           -8.00373415974300        4.95367222137572        2.84360660306495
H           -5.50865594054958        3.80178884851640        4.31310105823618
H           -6.92976109891187        2.99450351654341        5.01368915062778
H           -6.26957659147569        2.44143568500162        3.45918706206309
C            6.36921275707202        3.07474223559457        4.00451740712506
C            7.20474679618239        3.05467645303039        5.16793747484561
N            7.87364604652192        3.03489868121705        6.09727138041784
H            5.32520973271729        3.10137458060214        4.31243034995948
H            6.59476257650963        3.95984689371055        3.41163671440566
H            6.55238938991027        2.18087572000963        3.41014568752562
C           -3.67754660222137       -6.11684738193059        3.12415359141229
C           -2.35718678002963       -6.67011834086050        3.10816990796558
N           -1.30022038348455       -7.11031892174234        3.09505787519142
H           -3.97313922930317       -5.90406485937824        4.15026315140945
H           -3.68456738861062       -5.19442021920483        2.54490293237043
H           -4.37716388275468       -6.82467704071226        2.68224288201485
C           -4.59008840824647        9.01809922132608        2.10049196112988
C           -3.68992143558896        7.99085307537989        2.53172999852636
N           -2.96638641367268        7.17367913695230        2.87704816509431
H           -4.62716082376678        9.80809701475867        2.84956301235148
H           -4.24289004204285        9.42831208983583        1.15306439535829
H           -5.58484946778486        8.59490574099410        1.96830251242762
C            8.66678930692355       -4.47977993450302        0.86184817270679
C           10.01467914478229       -4.96658854676379        0.86829168652739
N           11.09230048345468       -5.35353763845195        0.87216369548523
H            8.37286460566571       -4.21225752959299        1.87613000472901
H            8.60213570768891       -3.60347127137441        0.21826552703293
H            8.00360298059676       -5.25728791071169        0.48504982408610
C           -6.57715049528015       -1.77748541322006        1.21798524602063
C           -7.03339941776009       -3.00191489289206        0.63339577155320
N           -7.40223219511951       -3.98050557431217        0.16656185012092
H           -6.80457295911032       -1.77555992358454        2.28248837136438
H           -5.49985308242808       -1.69877154893537        1.07876638093144
H           -7.06875483771540       -0.93635568615055        0.73230455176637
C            2.10632839939584        8.07649825746624        0.72499362931187
C            2.74395842085639        7.40066842860958        1.81481231906031
N            3.25080258933076        6.85501016275008        2.68453865963158
H            1.03028981947020        8.09751062317905        0.89160604627873
H            2.48421806798589        9.09588042959767        0.65845018362165
H            2.31907092369952        7.54980499691143       -0.20408378033423
C            1.92360950736122       -7.31987368263332       -1.61306208052039
C            3.33620090886222       -7.39033019305477       -1.38739700836600
N            4.46597019762008       -7.44297408414338       -1.20871252105427
H            1.40767764213875       -7.20128538905211       -0.66093169381027
H            1.70036480126088       -6.46672772355968       -2.25206522176949
H            1.58665805656480       -8.23426348041364       -2.09937082878645
C           -7.37843075201221        5.71575580448635       -2.53218013541710
C           -6.00008042138106        5.92854502319927       -2.20723478089460
N           -4.89795353214075        6.10321048126902       -1.95117664360674
H           -7.94091348639470        5.52323870123004       -1.61956840769213
H           -7.77708791266824        6.60113807241091       -3.02567363077882
H           -7.46422836187582        4.85741297078826       -3.19710088017653
C           10.19636864094047        2.76187695009346       -3.86476005688767
C            9.61836113091720        3.87619129205198       -4.55515370917413
N            9.15263080939750        4.76510519348197       -5.10651494421123
H            9.57647803424767        2.50417144826901       -3.00724215089296
H           10.25267505203169        1.90749204833247       -4.53794987155494
H           11.19755286430704        3.02411798434057       -3.52525898392474
C           -3.31626584541259       -6.41195263109464       -2.02597128516017
C           -2.79444269404950       -6.31751579196517       -3.35564308638623
N           -2.37437402359832       -6.24124344618062       -4.41836257519091
H           -3.02374287183701       -5.52491584118433       -1.46434275891151
H           -4.40293630069868       -6.47133106151322       -2.06246084198082
H           -2.91592022575675       -7.29819533403910       -1.53600844472952
C           -1.57724399066444        5.66147703808262       -5.71341484777213
C           -0.57930590511912        5.94233961642878       -4.72507919670998
N            0.21611698818435        6.16693846481526       -3.93307662551039
H           -2.25372029163537        6.51102341630854       -5.79701818298408
H           -1.09584461760576        5.48066296021098       -6.67361713956687
H           -2.14042581334143        4.77714832602932       -5.41827817930070
C            6.47673062586055       -3.66992856612738       -4.55512802992431
C            6.93068535739003       -2.40305271458728       -4.07254224418478
N            7.29722807862830       -1.38966123012349       -3.68318570509719
H            6.61668175712959       -4.42639197514113       -3.78444387716544
H            5.41829143277417       -3.60465845472758       -4.80883557744404
H            7.04402779456409       -3.94615089374232       -5.44259213617450
C           -5.18927283456459       -1.73300292833512       -3.95050135297605
C           -5.52429873317483       -0.37780985275201       -3.63710228553099
N           -5.78642828606289        0.70769893588256       -3.38434300418084
H           -4.51807194859921       -2.12019999313931       -3.18485454877925
H           -6.09442034367767       -2.33774932364280       -3.97316987475537
H           -4.69710854086636       -1.77517161345744       -4.92047209713169
C            4.35104576314242        3.26548862686070       -5.51320425603603
C            3.18452002579897        2.77001526899158       -6.17917167147111
N            2.25074883537529        2.37525699845252       -6.71210891547716
H            4.88059869301854        3.95307105979777       -6.17124394438712
H            4.05470615387305        3.78878805593003       -4.60543450828099
H            5.00580676772298        2.43332953271293       -5.25777056550405
C            0.89361640194483       -2.81139047401581       -6.12169326289570
C            2.20579024313735       -3.20179085690548       -5.70930094677817
N            3.25721487590137       -3.51293550235968       -5.37906251372223
H            0.26450117409650       -2.67226986042612       -5.24329946452962
H            0.95292471773125       -1.87772108647406       -6.67947427481615
H            0.46575329534891       -3.58885358743250       -6.75330129339144
