43
Ferrocene_NH4_0_gas_secondrun.log	Energy: -1759943.8981701
C         -3.53558        0.97505        0.77839
H         -4.61483        0.95251        0.75878
C         -2.69239        1.50472       -0.23860
H         -3.01428        1.95232       -1.16831
C         -1.32789        1.29881        0.16116
C         -2.70443        0.45761        1.81750
H         -3.04807       -0.03070        2.71705
C         -1.34414        0.64640        1.44399
H         -0.47382        0.30747        1.98181
C         -3.39291       -2.00038       -0.74779
H         -4.47159       -2.02427       -0.79799
C         -2.51576       -1.46882       -1.74123
H         -2.81755       -1.02114       -2.67690
C         -1.17627       -1.62218       -1.27312
H         -0.26856       -1.30820       -1.76587
C         -2.58982       -2.48000        0.33148
H         -2.95851       -2.92389        1.24456
C         -1.22130       -2.24429        0.00659
H         -0.35442       -2.45626        0.61236
Fe        -2.27356       -0.47701        0.03937
C         -0.13755        1.55243       -0.68838
H         -0.43415        1.71587       -1.72696
H          0.56164        0.72671       -0.64535
N          0.69597        2.79754       -0.30839
C          1.21189        2.67670        1.09958
H          0.36195        2.65596        1.77876
H          1.78776        1.75660        1.17536
H          1.84010        3.54500        1.30531
C         -0.13548        4.02939       -0.43920
H          0.46011        4.89724       -0.15176
H         -0.46022        4.12867       -1.47616
H         -1.00604        3.93319        0.20962
C          1.86965        2.85084       -1.24592
H          1.49600        2.91979       -2.26842
H          2.46775        3.73197       -1.00756
H          2.45579        1.94168       -1.11079
P          2.70478       -1.04059        0.12927
F          1.97631       -2.46690        0.03112
F          1.94417       -0.57079       -1.25872
F          3.94860       -1.54490       -0.72541
F          3.34847        0.47111        0.21284
F          3.41258       -1.43068        1.50262
F          1.40454       -0.46114        0.97332
