163
 energy: -251.552439814274 gnorm: 0.000628565451 xtb: 6.6.0 (conda-forge)
C           -3.53558000005611        0.97504999995557        0.77839000016423
H           -4.55976848444989        1.15916257216451        1.04092381584456
C           -2.81041245410102        1.62977062987083       -0.23882886903411
H           -3.17926217288697        2.40964229533317       -0.87958361355452
C           -1.48328085974041        1.11720049549796       -0.22904212049683
C           -2.66276962393272        0.07893722583059        1.43124833313868
H           -2.90699099396948       -0.51948780380015        2.28928767753637
C           -1.39664538247343        0.17320012345905        0.82505389947016
H           -0.52118483388243       -0.38016856959710        1.10858324815358
C           -4.59932019846174       -0.63184883630011       -1.77840516380455
H           -5.52882333351103       -0.13343099114091       -1.57835912835160
C           -3.56622431566085       -0.16011341786128       -2.62048480293097
H           -3.57952399178486        0.75466411767405       -3.18340548479163
C           -2.55519422138269       -1.14357179025526       -2.65800753309337
H           -1.63913146316429       -1.09633740540228       -3.21537311848953
C           -4.21283660307186       -1.89675069079559       -1.28627800001724
H           -4.80292674395035       -2.54038877873508       -0.65771226999658
C           -2.95895973371797       -2.21689938029867       -1.84945067578410
H           -2.40572887290676       -3.12382821591708       -1.69126849020528
Fe          -2.88173495873621       -0.34506198534725       -0.70078433817335
C           -0.42316665928652        1.47805866741840       -1.21273350949605
H           -0.89229946798865        1.83989027904604       -2.12924300034119
H            0.16176639405936        0.59019341033452       -1.44614745182036
N            0.51877640748301        2.54281081884555       -0.74219678931181
C            1.20429562814644        2.11319385230762        0.48663207294469
H            0.48071250280623        1.99174517474375        1.28961086661315
H            1.70635809475832        1.16334308426966        0.31191814032254
H            1.94088261625760        2.85955014325080        0.77591274757277
C           -0.23205796642790        3.78393815757960       -0.48790420402628
H            0.45014472799190        4.56508960185257       -0.15996262222242
H           -0.72539211163984        4.09496199396242       -1.40693941263874
H           -0.97788680495851        3.60814409722646        0.28420509983146
C            1.50954738959462        2.77949083573646       -1.80450772016315
H            0.99628685133827        3.08073591986060       -2.71578489724761
H            2.19397531554120        3.56825469816399       -1.50220593767640
H            2.07336729718785        1.86768776072298       -1.99320066891517
P            1.08613876997417       -2.46389575901439       -0.99759486978689
F            0.35489840844477       -3.90947416619308       -0.94865351170385
F            1.04553484795178       -2.48676331213090       -2.61516607977561
F            2.53332229101368       -3.21409107664211       -1.02759674129940
F            1.84347718321574       -1.02920219379702       -1.03413660610124
F            1.15051296227015       -2.44374778315227        0.62650639333929
F           -0.33425743925042       -1.71549282188605       -0.95182283707312
C            1.31591972067471        1.72949724982076        7.56029724333634
C            0.93986030486874        1.11520295321763        8.79846296585428
N            0.63844524014377        0.62447243761381        9.78820640378553
H            0.55103477563095        1.53260445589505        6.81051623740647
H            1.41688902804513        2.80431204476194        7.70387398194823
H            2.26888588987387        1.32014357077966        7.22823643218896
C           -3.12964007741237       -2.52993087997439        9.01277620583110
C           -2.75417014698189       -2.20878162061193        7.66948393669282
N           -2.45622017501375       -1.94982411853325        6.59461251185563
H           -2.26501080553586       -2.92090779829592        9.54748156335741
H           -3.48734546845725       -1.63037882902442        9.51217548290417
H           -3.92224290571262       -3.27700216021753        8.99937997931496
C            2.16391266952809        7.80147933839523        4.86095918041878
C            1.50184868500425        6.59588607046018        4.46289262414013
N            0.97074020243140        5.63353919446370        4.14284536049469
H            2.69182067822004        7.63521996017317        5.79904719870483
H            2.87546058657474        8.09283698648239        4.08954203592540
H            1.42858718691071        8.59442231168749        4.99159251064048
C            2.40780614050081       -2.55644507192508        3.87013774652178
C            3.13582557476434       -3.78832322848450        3.91413541450155
N            3.72144322767068       -4.77195184446092        3.94922285596779
H            3.06404800725044       -1.73774678705364        4.16052362366387
H            2.05091646675438       -2.39400893499564        2.85429551203526
H            1.55968734629573       -2.60993334636867        4.55090339093479
C           -6.75176018414003        0.23502591406816        5.14861827495309
C           -7.17794388440183       -0.26012085897996        6.42351449598061
N           -7.51742306458177       -0.65950875621625        7.44157080905596
H           -7.53901459328398        0.85124741932659        4.71677832172400
H           -5.84860657475664        0.83026791684557        5.27513510352630
H           -6.54347218360883       -0.60519783841145        4.48792119707930
C            6.12145727908358        3.75559778676666        4.05894096552555
C            5.83793011849757        4.07274516633828        5.42613962644165
N            5.60908814272360        4.32702088013161        6.51915611321102
H            5.18753432719479        3.62595832877582        3.51450918758315
H            6.69292666249045        4.56610185778267        3.60886303057065
H            6.69964244285767        2.83376650561003        4.01192617277535
C           -2.23594175724789       -3.26372245534206        1.23795424157014
C           -2.90254020211948       -4.44605037087373        0.79523020255609
N           -3.44532857196319       -5.39201520027929        0.44263320925095
H           -2.36153666359291       -3.15346255287484        2.31236696835158
H           -1.17770263420049       -3.34334174348385        1.00163192322977
H           -2.63383780431184       -2.39005138516688        0.71336972686786
C           -2.19074388890282        8.42762621938079        0.74582702306145
C           -0.93325352311769        9.11345779255737        0.73448015276264
N            0.07153773222434        9.66269750521196        0.72798886102053
H           -2.16517009132322        7.63654929639528        1.49383366880898
H           -2.98492193641140        9.13228617158836        0.98913502924486
H           -2.37954556531494        7.99612017868627       -0.23597681873697
C            5.93961824986725       -2.59011225779522       -0.25447061088626
C            5.93192729188908       -1.29909091466289        0.36331758533074
N            5.92641101914228       -0.26739876694286        0.85970531713957
H            6.30081534572462       -3.33321874562528        0.45502492339787
H            4.92571949882784       -2.84496343606546       -0.56127915621013
H            6.58780883824688       -2.57286566602745       -1.12918800265632
C           -9.69907602473727       -3.07482863917125        0.84788179132244
C           -9.43724317310443       -1.66706467630175        0.79716139580200
N           -9.22813573014823       -0.54225456024037        0.75704385989913
H           -9.94815889811483       -3.36106326076690        1.86904839616189
H          -10.53435945350591       -3.31264758380445        0.19048161137488
H           -8.81437665923433       -3.62165411449746        0.52372638608636
C            4.41316502812505        8.55136241471915       -1.59590645293058
C            4.51458295782839        7.51149460047867       -0.61806654231109
N            4.59357459449368        6.67921120951200        0.16465742772977
H            3.44628755636287        8.48778209994391       -2.09300195939227
H            4.50573508937306        9.52011755773859       -1.10674752109864
H            5.20722986010791        8.43462165607271       -2.33252243379779
C            2.48308173016450       -6.78199516488972       -0.57677626180568
C            2.80765859624266       -7.05590368405001       -1.94352954854335
N            3.06504717008788       -7.27669625925468       -3.03739701233839
H            3.35884294960638       -6.94569195826407        0.04885705415642
H            2.16332180044671       -5.74436624859179       -0.48895162843084
H            1.67404735753242       -7.43518590128476       -0.25388067054749
C           -7.61825441773614        4.10588622737771       -2.61093693647451
C           -6.53258430154724        5.03767562435716       -2.54092396218242
N           -5.66382695200876        5.78117403596783       -2.48347163319902
H           -7.71861315570854        3.59052836927537       -1.65657789602167
H           -8.54140864128576        4.63935913482501       -2.83351255957535
H           -7.42120617020166        3.37880756472882       -3.39777866571068
C            7.22928829034346        3.33112065159205       -2.55487958132722
C            7.79939624678577        4.45948202188961       -3.22732805610686
N            8.25332940321620        5.36214959102175       -3.76637663835111
H            7.37242602554519        3.43574951818126       -1.48052309169882
H            6.16470141637989        3.27785391392890       -2.77557667999664
H            7.71384116244769        2.41820270809018       -2.89840480405972
C           -1.98121558278330       -6.48492205344542       -4.77278439357260
C           -2.40523694283287       -5.56020631497896       -5.78026744794419
N           -2.74449747888351       -4.82377156437683       -6.58867848645621
H           -1.10258005616979       -6.08842445547854       -4.26559381112050
H           -2.78105114064637       -6.62604106935039       -4.04691959088048
H           -1.73256524387243       -7.43977326896237       -5.23387656662177
C           -1.98411903050094        4.63892239271803       -5.87313494120636
C           -1.47695541692666        4.08836289146880       -4.65844275119507
N           -1.07074065308597        3.65144360666124       -3.68065490232655
H           -2.39798771315788        5.62722581740697       -5.67627264391682
H           -1.17487960096508        4.72087127111440       -6.59788058965362
H           -2.76516868836360        3.99108174381540       -6.26954616457743
C            3.26344270797846       -2.58760547674180       -5.32529841396406
C            4.10538057438058       -1.47482291221291       -5.00722505791134
N            4.77789526023341       -0.58338865389945       -4.75370752794682
H            2.52527234706853       -2.71432722170180       -4.53417089218059
H            2.75577260617480       -2.40161888815732       -6.27039313376590
H            3.86537613494604       -3.49171298097101       -5.40381921640590
C           -6.64822828944259       -1.58387026684451       -6.84611088554947
C           -6.33650441604736       -0.18831853461565       -6.92091181849229
N           -6.08625888861624        0.92746555426047       -6.98151522547373
H           -7.72924385546414       -1.71389431525965       -6.81610969564409
H           -6.24424108533825       -2.09423441635703       -7.71944666881808
H           -6.20497125148212       -2.00668837487106       -5.94563061616743
C            4.48495246235144        4.31091139063960       -7.35402173704109
C            3.76668544840883        5.07188051713116       -6.37672206191494
N            3.19170239701502        5.67850993159830       -5.59412309457969
H            3.99231333017497        4.40323061261445       -8.32105250494326
H            5.50589209982721        4.68379293185087       -7.42614124858160
H            4.50048729981193        3.26327920880790       -7.05632044316549
C           -1.33662581491665       -0.36338013817292       -8.54134966004193
C           -0.17627000182961        0.47547245204484       -8.57637719849413
N            0.74989191407104        1.14822755881965       -8.60460084441067
H           -1.65992958404531       -0.49387996307084       -7.50959097968860
H           -2.13666084250516        0.09912181058368       -9.11771849987165
H           -1.09635825999381       -1.33581602253276       -8.96912191945589
