160
 energy: -234.482453662839 gnorm: 0.000574927048 xtb: 6.6.0 (conda-forge)
C            2.73014999972428       -3.27783999958038       -1.01554000017843
C            3.89695379099251       -2.78946634627173       -0.45436938787068
C            3.92097393374324       -1.49751995958806        0.04175338390360
C            2.77808213904773       -0.71865525653355        0.00082056926261
C            1.58769581148492       -1.19672449344266       -0.55408911008146
C            1.59472347470572       -2.48862905277659       -1.08085563286705
N            0.44936977529519       -0.38704413007918       -0.58725109161153
C            0.60459350105736        0.96207753644441       -0.91603993398845
C           -0.29145458171672        1.62999086126241       -1.75091482977210
C           -0.12049162754652        2.96923457642995       -2.05366516900812
C            0.96116565559415        3.67260173290472       -1.55331320717053
C            1.87315185022113        3.02346263809339       -0.73944991606821
C            1.68703519938577        1.69104944978534       -0.41578762030036
H            2.69920782863465       -4.27851550297279       -1.41891369977374
H            4.78183223482647       -3.40439418184316       -0.40602637781866
H            4.81582262584943       -1.08832319874655        0.48478867544425
H            0.70894261375377       -2.88264745338876       -1.55334860895517
H           -1.13174906127788        1.10117340782428       -2.16881156829683
H           -0.83950186045434        3.46114983631483       -2.69136437312372
H            1.09635746971670        4.71626103880162       -1.79003805719212
H            2.72419533227760        3.54819200913391       -0.33357557645576
S            2.82859045601196        0.91206672246245        0.69826666904894
C           -0.86223077057701       -0.99053538600510       -0.64801751314849
H           -1.29332391484275       -0.98085498101235       -1.65593473774711
H           -0.78120463842719       -2.03036632234810       -0.33198638777360
C           -1.83083874084644       -0.29333865564901        0.31572611646270
H           -1.48235886391544       -0.42182606559147        1.35293377586550
H           -1.88001956730610        0.78613016916977        0.10985421947245
O           -3.10061811338886       -0.88022016026288        0.14653544425744
C           -4.08320976199614       -0.32660538546867        0.99260863734254
H           -3.82041528736720       -0.51529008539001        2.04449905444677
H           -4.15494191236812        0.75954733085704        0.83665874540963
C           -5.43039141281115       -0.96754765685459        0.67927002988647
H           -5.26975598046586       -2.02783800581873        0.44014880385927
H           -6.08536891080685       -0.89879281904301        1.56089819127934
O           -6.02931452988394       -0.30556846797304       -0.41277534933354
C           -7.23901274986540       -0.90628706108697       -0.81235935072624
H           -7.97133670189417       -0.89897356536123        0.00445077797179
H           -7.61738543112521       -0.32189132779570       -1.64810371174355
H           -7.07977062821336       -1.94274169251035       -1.13173369917669
C            2.80204625557896        1.03354840649713        6.74126296607308
C            1.82562904423986        0.25228987442821        7.43895104625337
N            1.04593235497889       -0.37260689639863        7.99818784587658
H            2.93348728355684        1.98686844426667        7.25145608620104
H            3.74942595819189        0.49655013573869        6.72159155184592
H            2.46280381176469        1.21049683645851        5.72143436067756
C           -3.54068431442498       -2.20421408629805        8.03920767564338
C           -3.35733023816636       -2.73455313097108        6.72192839651073
N           -3.21520352608800       -3.16176309057065        5.66910378713424
H           -3.36643294955806       -1.12932378646196        8.02397760800757
H           -4.55845679814302       -2.40313736663518        8.37249614967278
H           -2.83258615393352       -2.67374915097572        8.72080532521406
C            0.63673234745586        7.44045693465420        6.21831896106785
C            0.23111823984118        6.09621576785355        5.93488442941542
N           -0.09510780737291        5.02241633504648        5.70752659959259
H            1.31373408650104        7.44212799200136        7.07164262534695
H            1.14832408405220        7.85542708761777        5.35063761326636
H           -0.24075018764918        8.04371693421580        6.44772938256840
C            1.87844069522065       -4.27626328041572        4.39595492445484
C            3.21641299423237       -3.78338228567638        4.53027511647455
N            4.28715486884091       -3.39153920749432        4.63447135438640
H            1.26854662240569       -3.90483722662707        5.21829564063312
H            1.46054635903188       -3.93365649335556        3.45037708860491
H            1.88963395220002       -5.36520129683545        4.41372185461882
C           -6.11860087796438        2.50729541243920        5.59183849458573
C           -6.76577477651987        1.23332531406797        5.68719306597695
N           -7.28380637735892        0.21488474187938        5.76328289178038
H           -5.97538565644093        2.91900699949294        6.59002763128704
H           -5.15060462768041        2.39066226592961        5.10600765454765
H           -6.73629831714523        3.18629936975963        5.00560393330132
C            5.08036746360983        4.79945163186356        3.74546748580860
C            5.24711340634345        5.32571565154108        5.06695562873656
N            5.37273002331710        5.74231987368486        6.12611742802130
H            4.01859697534194        4.75031723790189        3.50786081756136
H            5.58251008205505        5.44841899394966        3.02943941748405
H            5.51063207741615        3.80025821155708        3.69298267204536
C           -2.80441449717175       -6.49321622341821        1.79079401891575
C           -1.51702991999632       -7.01945881928911        1.44899683547506
N           -0.48746793617106       -7.44260132636327        1.18057953642861
H           -2.97974828371502       -6.62642567663744        2.85739084087055
H           -2.84026161341648       -5.43220286805077        1.54769502124096
H           -3.57341417345498       -7.02032611762253        1.22793473583090
C           -2.26176618355434        6.67052150749622        1.22382920722431
C           -3.51523175497736        6.27236197628029        1.78931535162208
N           -4.51977957982910        5.95577506276128        2.23878080829153
H           -2.32394040440272        6.63024464614199        0.13722828042813
H           -2.02645588607551        7.68697317585238        1.53624499881543
H           -1.47792676255167        5.99691025477333        1.56690151088835
C            8.80658738683840       -3.59407072207063        2.47107613841092
C           10.14254820305112       -4.11237498942561        2.48244054140372
N           11.21085021407428       -4.52415426929231        2.48889131235542
H            8.62121357954296       -3.04472505272779        3.39302218418809
H            8.68353047813815       -2.92691998589924        1.61902763245390
H            8.09749985940414       -4.41714807403964        2.39417369487053
C           -8.35570342927743       -4.40501222053501        3.84316662534373
C           -8.08908839435866       -5.06413507151416        2.59997566208830
N           -7.87513664301705       -5.59008960084713        1.60551596404362
H           -7.41516615264890       -4.10719673467857        4.30496403175485
H           -8.96458425878805       -3.51992184067559        3.66356867056802
H           -8.88888931373243       -5.08355854644949        4.50771169786564
C            4.13868825745477        8.61156912052392       -0.94175532069185
C            3.20756541922803        8.40884625430691        0.12649295964416
N            2.46375261917165        8.24479903366069        0.98176417660320
H            3.75106813972921        9.36782934076122       -1.62306981499522
H            5.09352061116286        8.94142166549014       -0.53430791770984
H            4.28031231288654        7.67697572239637       -1.48301807476447
C            1.54456138011694       -8.73676774948923       -3.30376306640578
C            2.26339714778318       -7.90990127390371       -4.22618527909620
N            2.83839864710286       -7.24746706196331       -4.96222430252350
H            2.06810264537295       -8.75551715549470       -2.34877909960343
H            0.54420544934750       -8.33134851955049       -3.15774768665840
H            1.47425104395620       -9.74867873066980       -3.70047038735520
C           -7.18465639010822        4.69989708347267       -1.73668554507361
C           -6.02619007514852        4.99630267575278       -2.52473147213531
N           -5.10339261768398        5.23016681082360       -3.16105723870507
H           -6.94523411038818        3.91154508971975       -1.02439287039849
H           -7.49379053021056        5.59353974515437       -1.19600763342224
H           -7.99273788522354        4.37002850386538       -2.38841441778225
C            9.41118890248516        3.70391825047186       -1.75345146155436
C            8.76789851349662        4.80430082637736       -1.10005052052440
N            8.25663683425548        5.68394160310643       -0.57485977641074
H            8.84870760812546        2.79109573599743       -1.56220776870196
H            9.44289226944314        3.88871023326429       -2.82641229180755
H           10.42545985673681        3.59617261113273       -1.37097986084500
C           -5.42311338005108       -5.90226162019182       -3.44200257604060
C           -4.03379145279150       -5.60713688438749       -3.25490547141307
N           -2.92199042656044       -5.37792764774860       -3.10500152004634
H           -5.92935824584035       -5.89897139960034       -2.47748327345619
H           -5.86911219463757       -5.14890056333968       -4.08990864063468
H           -5.52605932290059       -6.88395479343080       -3.90280349553801
C           -1.39984691722091        7.48068135334043       -5.83700135896832
C           -0.10353349940570        7.76202133177318       -5.29616566328123
N            0.93380850119471        7.98930834470773       -4.86793221733933
H           -2.16068144603485        7.96992859030242       -5.23024896081310
H           -1.45501145722809        7.85267643787006       -6.85935694990068
H           -1.57063464637400        6.40501097826110       -5.83099688013406
C            4.91964529485630       -2.31825361930655       -5.95336481066835
C            4.58036829725552       -1.82214784421728       -7.25368528222801
N            4.30724861635519       -1.42304886410884       -8.29157585491804
H            5.89029375756508       -1.92323959777167       -5.65656686146619
H            4.16458615810507       -1.99894279714914       -5.23609857521694
H            4.95989925420792       -3.40634338747311       -5.97857818330108
C           -4.95645847418317        0.76019336401603       -5.57429738355611
C           -5.28996514791445       -0.50432460856990       -6.15872455140665
N           -5.56221794217192       -1.51352818226380       -6.62606006351405
H           -4.63281879229673        0.60959981617764       -4.54548746470337
H           -4.15044779770732        1.22150826203571       -6.14303102626850
H           -5.83059886674033        1.40965896764798       -5.59061261880729
C            3.42255876860053        3.06222324989171       -6.00555033548956
C            4.53068851114793        2.75648143701975       -5.15125914650862
N            5.41843511428786        2.51020868684041       -4.47134537385875
H            3.08653869688021        4.08050907234986       -5.81431882868037
H            3.73133445359254        2.96735501590631       -7.04589519694597
H            2.60953180396005        2.36564483801006       -5.80590997770676
C           -0.46906901241572       -3.35387676725396       -7.08307472537268
C           -0.38058293110951       -2.04548802634071       -6.50867521288595
N           -0.30320804171419       -0.99846634982927       -6.05172013694068
H           -0.05074197931351       -4.08303340660623       -6.39054976097469
H           -1.51380443205074       -3.59448484336355       -7.27589444888962
H            0.09130909540268       -3.37637597612887       -8.01697510074693
