141
 energy: -203.670841001845 gnorm: 0.000671147275 xtb: 6.6.0 (conda-forge)
C           -1.64771000002724       -0.47373999997513       -1.11824000001100
H           -1.74636771783522       -0.62928690620116       -2.17922756435815
C           -1.58409745981593        0.77785693199555       -0.46422512604554
H           -1.62466589684442        1.74105790574100       -0.94383455312402
C           -1.53826041849698        0.54211746906859        0.92912139449935
H           -1.54023062140699        1.29378159810165        1.70052337461964
C           -1.64153019405979       -1.48376513027839       -0.12955014935356
H           -1.74276587257027       -2.54078080170115       -0.30828654795508
C           -1.57270057174143       -0.85630151569667        1.13565071406578
H           -1.60896709070032       -1.35234991737445        2.09092650996344
C            1.95706526529155       -0.16413805394995       -1.24548622034625
H            1.97936501566351        0.03637376774019       -2.30317627417472
C            2.01381503822102        0.80331727377716       -0.21669351383417
H            2.08721233288158        1.86880531783805       -0.35451418170650
C            2.04175502271223        0.12346790742950        1.02227936643560
H            2.13977504410921        0.58332713158481        1.99055209973988
C            1.94900828941843       -1.44237031540358       -0.64255815092408
H            1.96568444440261       -2.38528244942999       -1.16255980670389
C            2.00087385064220       -1.26523796402351        0.75950119216318
H            2.06691104070886       -2.05105523582303        1.49306095992966
Fe           0.19833082474689       -0.34858533970596        0.00328529402654
C            2.18020872016255       -0.82590481674095        6.42930590414205
C            2.06436818623535       -1.58547277078737        7.63743746839347
N            1.97080958507309       -2.19200553549436        8.60437712049243
H            2.49124294246753        0.19042128497563        6.66728085505917
H            2.92033874933326       -1.29016160990694        5.77908119037474
H            1.21651551353227       -0.80048211400568        5.92239202445220
C           -3.01512422577804       -2.76777163531966        8.68792679413966
C           -2.67915024906781       -3.24673849508115        7.38097783610398
N           -2.40747242619577       -3.63015083972040        6.33688845100795
H           -2.41271345088779       -3.28900033696547        9.43082092790216
H           -2.81376513731872       -1.69877912526520        8.74311676941008
H           -4.07190919514448       -2.94833712142351        8.87990104163765
C            0.83676410549847        6.44945413911784        5.11303959888294
C            0.76753584073004        5.02299449237913        5.00437045493941
N            0.70993690629312        3.88278937966405        4.91700917852082
H            1.55457786288353        6.71930311976415        5.88658481120457
H            1.15887625108064        6.86912913451239        4.16093548535935
H           -0.14493654973560        6.84322877643439        5.37298676908259
C            2.31407925290621       -6.65114162006004        6.35274199522470
C            2.89211930364103       -6.02660221560248        5.20137143489928
N            3.35267328522623       -5.52690918659059        4.27975431542517
H            2.91890799789170       -6.42590029808804        7.23020654704421
H            1.30457474837830       -6.26996677481548        6.50166699561461
H            2.27647109650726       -7.72898033374936        6.20020940067886
C           -6.19408377938749        2.81445683301879        6.71207045289412
C           -6.35603791824599        1.39144778889082        6.72378897031818
N           -6.48638727015946        0.25386837551939        6.73476418890869
H           -6.62258701079430        3.23682484165453        7.62000117454092
H           -5.13414358445510        3.05998735951352        6.66076953429222
H           -6.70175055214673        3.23087476369909        5.84310634980138
C            5.88910189716977        4.06733481842415        2.97032264821041
C            5.77981330701185        5.31066263054002        3.67280793758093
N            5.69242474196939        6.30387604420870        4.23584061802533
H            6.21856664610874        3.28911501312105        3.65729389326974
H            4.91860812049597        3.79778082769260        2.55621807525443
H            6.61536590708035        4.16778886199391        2.16506082509691
C           -1.72254221633722       -6.61016707738102        2.32614851441260
C           -1.06149503640396       -7.85170090931285        2.59481072019462
N           -0.52750806471875       -8.84177197103262        2.80953103892927
H           -1.05321381371717       -5.78421164571600        2.56298493634204
H           -1.99986095684403       -6.56548767499620        1.27400987523343
H           -2.61973488399292       -6.53642496644504        2.93894466365962
C           -2.90192267646706        5.96344782167164        1.05694185709017
C           -3.58638892956421        5.95391883663726        2.31431975235541
N           -4.13351158262229        5.94853565622467        3.32029861448063
H           -2.83361320667469        6.98642312099116        0.68969532393017
H           -1.90046841523904        5.55513124587051        1.18457867760972
H           -3.45347146263843        5.35708783020947        0.34003921786681
C            6.83963534276833       -2.88414829169325        0.84969639186143
C            7.19164516384326       -1.53985593591584        1.19609101950328
N            7.47818871552117       -0.46586677270041        1.47088813321598
H            6.17833246380350       -3.29423669922125        1.61147677857943
H            6.32967020583338       -2.88984866789156       -0.11244733755854
H            7.74142744286158       -3.49190791204603        0.78733562419277
C           -6.26975176011365       -2.46353005827143        2.47516233800378
C           -6.22606171240135       -3.61966899439067        1.63122213917306
N           -6.19380637797538       -4.54427252229823        0.95647786881152
H           -5.53150426755695       -2.56474337535566        3.26924630820835
H           -6.04778572574422       -1.57520278769990        1.88548844978102
H           -7.26180728769594       -2.37071652985899        2.91512676010352
C            4.25696387490605        6.30632091473239       -1.67409597012545
C            3.08446430207455        6.52392260364459       -0.88236565175158
N            2.14697192133653        6.69750879331874       -0.24801698056886
H            4.02658326925509        6.48827263152713       -2.72294424604303
H            5.04549783299387        6.98441069474331       -1.35072223342946
H            4.59263330781430        5.27753465009725       -1.55389257509769
C            2.80636056176080       -7.59794222790933       -0.89347094008031
C            3.58071867578882       -6.78459402622510       -1.78137695893841
N            4.19945904628468       -6.13250090224356       -2.49085427263994
H            2.85922117704791       -7.18785674239261        0.11418987935287
H            1.76908841376905       -7.61378216646479       -1.22512742401779
H            3.20082655417661       -8.61316679215977       -0.89175956696641
C           -9.03027169749354        7.49350650031858       -1.96967571514383
C           -7.60115248899971        7.56840010330231       -2.04189176264026
N           -6.45941975503881        7.62761566603486       -2.10139064607747
H           -9.38648133125026        8.12919890772337       -1.16004554831587
H           -9.45851643873036        7.83126188467244       -2.91257814624271
H           -9.32971647140508        6.46303730001474       -1.78219579546926
C            9.38690808160686        2.94052752014696       -2.21506538695490
C            9.31578904106726        4.28921373902201       -1.73697922951062
N            9.25660280508658        5.36613456367214       -1.35224097071589
H            9.59309563116170        2.27087879571133       -1.38049236450863
H            8.43650797157183        2.66881782689551       -2.67266932751838
H           10.18321044491393        2.85911293548828       -2.95434905335327
C           -4.73407463964059       -7.13930357548828       -3.67962105945073
C           -3.33323497458291       -7.10916807751302       -3.38484658493109
N           -2.21263962903201       -7.08730306190396       -3.15040241561214
H           -5.28593989356279       -6.67136918474633       -2.86558300513143
H           -4.92093408396596       -6.59509114263266       -4.60447363765786
H           -5.05866230572741       -8.17284914382070       -3.79276835986788
C           -1.30431194635421        8.40578752748720       -3.87633928118024
C           -0.47542580696648        7.47940961402973       -4.58847507505913
N            0.18507912973231        6.73989750853261       -5.16093844492749
H           -2.27555062469371        7.95129472376581       -3.68582232109665
H           -0.83022414936435        8.66257842308773       -2.93006500735740
H           -1.43609285624292        9.30715489955391       -4.47357996103011
C            5.76601678040365       -2.27034313718285       -5.48089113515081
C            5.39246032662705       -2.17107504235836       -6.86015693662981
N            5.09429717816235       -2.09513242261152       -7.96316020332351
H            6.54254928160141       -1.53856646094786       -5.26280062337447
H            4.89652260577754       -2.07378799106163       -4.85509897556273
H            6.14068500519823       -3.27282352186078       -5.27862795196069
C           -4.08153017688894       -1.00650071558817       -8.43865171431773
C           -4.37024858451057       -2.35570940426675       -8.05288760040296
N           -4.60353695642539       -3.43373281592531       -7.74570388626186
H           -3.85886449688304       -0.41641351042723       -7.55069270832792
H           -3.21872670116706       -0.99750732685146       -9.10346714025856
H           -4.94351840411650       -0.58305553162499       -8.95258160377148
C            2.73166553556138        2.67313042821689       -6.73492046287125
C            3.86236611544212        2.62760379379407       -5.85856135644326
N            4.76685309318337        2.59251214653814       -5.15694117802801
H            2.71548819048016        3.62914339712694       -7.25654979134020
H            2.80165169781851        1.86197446827975       -7.45854722111416
H            1.81770027520622        2.56264840597900       -6.15309072323221
C            0.57553631673345       -4.24437080543798       -6.30585917182982
C            0.40362805429307       -2.82427511213011       -6.24133870472671
N            0.26753184991616       -1.68854861725454       -6.19097697217951
H            0.94837883911314       -4.60986725320588       -5.35011333346537
H           -0.38225707794700       -4.71497922576794       -6.52433363693045
H            1.28916600386350       -4.48798907974835       -7.09193086275736
