173
 energy: -266.436463776052 gnorm: 0.000761469905 xtb: 6.6.0 (conda-forge)
C           -2.65477000000235        3.04075000001150        0.68277000004808
H           -3.26017536684288        3.90470479450417        0.89119092672203
C           -1.96357295818543        2.78628827819018       -0.52467205243138
H           -1.97750012862477        3.39679246085525       -1.41007653889461
C           -1.18359034183149        1.61359420408897       -0.34347848646013
C           -2.31034888757300        2.02570257310824        1.60680209597732
H           -2.64065405182382        1.94997134351803        2.62467671157140
C           -1.40880442761561        1.14607288193171        0.97943188815701
H           -0.97261515895637        0.27042252014236        1.41792324178915
C           -5.16073288687708        0.68062244999045       -0.41151190510611
H           -6.05258945443573        1.26982150856310       -0.28166638320442
C           -4.42661884539510        0.53706359920154       -1.61349036223118
H           -4.63025186891464        1.02062517215912       -2.55055521773476
C           -3.41531782450544       -0.41979485147295       -1.39300047353308
H           -2.70904068892469       -0.77613689233733       -2.11778353354092
C           -4.59429979047094       -0.19603846933669        0.54936971190433
H           -4.93199110426522       -0.34441623685023        1.55903672480503
C           -3.51952597435828       -0.87385518526816       -0.06084965458476
H           -2.89347742411395       -1.61386545660853        0.39819068320555
Fe          -3.14280292734586        1.12948367419151       -0.07066128429528
C           -0.31716053303600        0.96729680437521       -1.36927554702291
H           -0.66979434425172        1.23278664058830       -2.36818237530972
H           -0.36920436586146       -0.11517118804156       -1.25086294546096
N            1.12515132657166        1.36828671802633       -1.28789398081644
C            1.66909232461373        0.98177190217071        0.05178840703058
H            1.12992446096284        1.56172717793127        0.80308257045531
H            1.44831344955750       -0.07736085836716        0.19765837561072
C            1.24091180620833        2.82232447091787       -1.49687202960989
H            2.28856593358173        3.11233577424216       -1.48589804446465
H            0.80924138816545        3.07314227517040       -2.46447780160375
H            0.70692703127375        3.35181355164528       -0.71101184631618
C            1.84638610989953        0.67026528473215       -2.36565824351868
H            1.40729581952104        0.94981239412669       -3.32088243567648
H            2.89712585718454        0.94966206485737       -2.34974898933804
H            1.76410028728763       -0.40657002752344       -2.23120732115198
P            0.03746540478587       -3.22760429661260       -0.30479609133686
F           -0.76101566176233       -2.50136320830163       -1.51289685447394
F            1.40018041948108       -2.48063764113095       -0.77010518482287
F            0.37571154897794       -4.47811401413156       -1.27882218082529
F            0.83645117832810       -3.95347961335319        0.90557306963081
F           -1.33151003596573       -3.96358808126229        0.16211151368541
F           -0.29945839299563       -1.97735021594295        0.66641631494294
C            3.15122563672962        1.20421417606623        0.20765002860527
C            4.04143470883079        0.16498731618381       -0.04511785194599
C            3.64639456252371        2.42891275729152        0.64370424717284
C            5.40287331715655        0.35383614056072        0.11751489749447
H            3.66622945686893       -0.79919369758300       -0.35653184248600
C            5.00867458910220        2.61943056003997        0.79585084512774
H            2.97057300588789        3.23571760070182        0.87966924894095
C            5.88877389071561        1.58383531958236        0.53054906212406
H            8.56340131948377       -4.26302638238956       -1.28572173324083
H            5.38147907237819        3.57939612052381        1.11575050849080
H            6.95164230317782        1.72872812748307        0.65276076601286
C            2.37916474643457       -0.51610875378259        5.50334834541031
C            2.94067538775407       -1.49261447540534        6.38531176214079
N            3.38752653474662       -2.27702782728206        7.09092354729333
H            2.69980962873255        0.47843978822218        5.80872370903663
H            2.71430851087050       -0.71127538397953        4.48566664968684
H            1.29126494135852       -0.58090846621636        5.54747068187375
C           -3.26335277368203       -1.93966083868766        5.48286577819270
C           -1.95196496617622       -1.38539097398045        5.59256875189705
N           -0.90508335794626       -0.92759320772852        5.67782301864187
H           -3.56514577535043       -2.35708754804564        6.44211337641777
H           -3.96039553640694       -1.15189869159994        5.19204495391095
H           -3.26531557934953       -2.72281774154355        4.72583632743989
C           -0.67213452633805        4.69221777615209        5.94000550601940
C            0.35848563901580        4.60185234824804        4.95426796461355
N            1.17461607817941        4.53419958726205        4.15376501320010
H           -0.26476613045002        5.11891937095365        6.85544753233498
H           -1.46702719498942        5.33617869564053        5.56045359145844
H           -1.06871667895965        3.69911683428518        6.14638159606494
C            3.59275039178313       -5.42110875586771        2.56805189169355
C            4.71047679355836       -4.98566113869615        1.78997267851840
N            5.60607573160995       -4.63707346672203        1.16772792392066
H            3.74221903602018       -5.14217966126148        3.61005225531830
H            2.68804586284386       -4.94840652599160        2.18724081399600
H            3.49826444499862       -6.50317659939338        2.48721050291290
C           -5.54996854797863        2.44446049516467        2.75803590523015
C           -5.34043314729579        1.36344293716745        3.67030992289605
N           -5.17186984626967        0.49345374304505        4.39567184319789
H           -6.61693496504964        2.55755900675218        2.57353970327972
H           -5.15768574722599        3.36189569313611        3.19345883288082
H           -5.02755142098380        2.22791309532838        1.82352133322246
C            3.93726941634766        5.95106758408761        2.97620026157647
C            3.83154773523297        7.32524690702576        3.35282231792271
N            3.74543077956684        8.43021430481472        3.64594636920804
H            2.99603148373001        5.44421757556278        3.19100136943920
H            4.16491700639930        5.88940053870023        1.91135097949807
H            4.73604236569912        5.47924953016652        3.54660683047239
C           -1.58493391375992       -6.84754523524270        2.17522589412066
C           -0.91235552690072       -7.75600151211090        1.29906522236135
N           -0.37457231841296       -8.48069367200467        0.59376070619113
H           -1.17215911796172       -6.93492728827983        3.17909630608886
H           -1.43847753641446       -5.83209592532962        1.80792229108753
H           -2.64934355954029       -7.07683786465155        2.19215423835464
C           -1.30179672077597        8.87012287397231        3.11461297590857
C           -2.01274906771482        7.80176757331627        3.74555047063883
N           -2.58281669469329        6.94476824648112        4.24825909712927
H           -2.00976221431690        9.58075859625682        2.69007518430315
H           -0.67764167507830        9.37455102671110        3.85125066561270
H           -0.66852955419376        8.46682659068817        2.32540125340521
C            8.41586920315091       -5.06327557752600       -0.56198907741522
C            9.56785641404848       -5.16081794682886        0.28106253282152
N           10.49580796461432       -5.23839165833740        0.94845649205859
H            7.53621261467677       -4.84838623899886        0.04555631040489
H            6.08405012778822       -0.46019554230940       -0.07743647932335
H            8.26603725578523       -6.00709351087955       -1.08455389595461
C           -7.13014060909109       -2.66151441369752        0.09311816853578
C           -6.79833799685037       -3.88440747464422        0.76053211232814
N           -6.53242736883684       -4.86321914326961        1.29220070966977
H           -7.89601056496529       -2.13693439741736        0.66241592249876
H           -6.23903275011101       -2.03763762620179        0.01761535683983
H           -7.50464196965229       -2.88213139166522       -0.90543222656492
C            6.69638505630337        8.23327030783564       -0.79115080119008
C            5.86511034759286        7.13247287486900       -0.41414718638383
N            5.19732474713321        6.25433116370681       -0.10703457592846
H            6.52823984044197        9.06298034770155       -0.10507710956275
H            7.74208316079858        7.93098121467097       -0.74897924450920
H            6.45219926033097        8.54246227222515       -1.80672069045964
C            1.65438155150953       -7.71688318897563       -2.03907341955515
C            3.05802988285374       -7.97950811656890       -1.95332084608466
N            4.18242854575999       -8.18942593765047       -1.89239092827684
H            1.13663633101750       -8.20058368869530       -1.21016347328907
H            1.48086092133653       -6.64257119188665       -1.98405927497060
H            1.27092684178868       -8.09992649497575       -2.98333636358530
C           -5.06272630730697        4.00446846940971       -1.74202890718498
C           -4.24611963101667        4.50270232675746       -2.80373971322846
N           -3.58641179706837        4.90253756025140       -3.64980805623038
H           -4.54859623197203        3.17539158159750       -1.24880852513703
H           -5.24969958827729        4.80268789595702       -1.02625898118848
H           -6.00859410336065        3.65581839825759       -2.15262961053134
C            7.22882596736012        3.82807538841997       -4.50564604383691
C            8.10427406302074        4.95663045276696       -4.58631994924212
N            8.80574943736411        5.86056319399567       -4.64510580900612
H            6.98985944878213        3.62793814049466       -3.46240686103704
H            6.30952033433744        4.03853390910472       -5.05354877484574
H            7.71559801775170        2.95541456759812       -4.93885279056369
C           -2.90725732006194       -5.43556289606651       -2.78148562468861
C           -2.71997648922882       -4.93864704847096       -4.10721637403979
N           -2.57947116209706       -4.53803021937932       -5.17097182248621
H           -2.15898807074340       -4.99148329932481       -2.12543580219702
H           -3.90043245570814       -5.16727064088643       -2.42599016339756
H           -2.79618306667135       -6.51859971684014       -2.77522933087151
C           -1.51107668053424        3.96656128833968       -5.92226797207277
C           -0.73965901414158        3.08046935732409       -5.12020555646636
N           -0.11691413926557        2.37661449377146       -4.46214696339687
H           -2.29084732373745        4.40954391645568       -5.29907946567304
H           -0.87026559388255        4.75427882399664       -6.31643196800887
H           -1.97101844021596        3.41893017086284       -6.74307145579945
C            4.89952346528280       -3.60601500000373       -4.31636303465883
C            5.61766062494771       -2.37517218105646       -4.43087461298664
N            6.18899567680312       -1.38612710954953       -4.52197697284160
H            4.69806955234629       -3.81535597462697       -3.26670297901497
H            3.95387304056007       -3.52360961172749       -4.85317307244130
H            5.48904736053798       -4.41741738157439       -4.74005988675057
C           -5.66194134083173       -1.80906332394384       -8.58200530883427
C           -5.19583187114299       -0.77259503042614       -7.70956054323125
N           -4.82318687605659        0.05839213979984       -7.01600378332941
H           -5.35360048294095       -2.77783700306549       -8.19125086013896
H           -6.74882994848727       -1.77079499969488       -8.64278780674081
H           -5.23783712511598       -1.66601246788770       -9.57506859843040
C            2.71236178137648        2.03097414879766       -6.76907704096764
C            3.56297728405340        3.11598533873023       -6.38549794188911
N            4.23381775155944        3.98938647347595       -6.07208215721910
H            1.84349092204300        2.00557130509740       -6.11151013100871
H            2.38899676965927        2.16867056352159       -7.79984975070242
H            3.26064663172987        1.09405184588851       -6.68267260416355
C           -0.36306267088091       -2.73997396753503       -6.78330587098535
C            0.92629934405642       -3.02089039549260       -6.23704948980219
N            1.96678949703095       -3.23841596917232       -5.80951556250123
H           -1.11087154610278       -3.34908343235502       -6.27277665499940
H           -0.59790794732755       -1.68666574791081       -6.63962005853181
H           -0.36544865687314       -2.97761909364274       -7.84593256641324
