%chk=Ferrocene_solvated_p1
#p ub3lyp 6-31G(2df,p)  scf=(novaracc,maxcycles=1000,fermi,xqc) empiricaldispersion=gd3   scrf=(cpcm,solvent=acetonitrile)

title

1 2
C           -2.65476999992014        3.04075000013154        0.68276999993728
H           -3.31295793175044        3.88634458123199        0.74200404299590
C           -2.04679198358013        2.54333977714466       -0.49020359684019
H           -2.14730807980593        2.95532704241412       -1.47816340754558
C           -1.22760219872147        1.43828392804553       -0.12338471787041
C           -2.21486366759171        2.25997359854704        1.77315195298387
H           -2.46468873849734        2.42521566535694        2.80432028619863
C           -1.33575346234253        1.27177478875745        1.28354107891267
H           -0.81303205063939        0.54146862272612        1.87211052562627
C           -5.23690771303525        1.02235323701870       -0.01294584022460
H           -5.91770927978145        1.84730001239721        0.08575265496773
C           -4.53134066802195        0.65754610498829       -1.18129622150133
H           -4.58347659303512        1.15438993246844       -2.13204341870681
C           -3.79238628146046       -0.51216413829831       -0.89464143128853
H           -3.17506835860438       -1.06493953851704       -1.57729923128729
C           -4.93483157880691        0.07710388239238        0.99254716925486
H           -5.35774597032081        0.05760044240726        1.98039593323130
C           -4.04697409646968       -0.87359302989971        0.44293900230661
H           -3.65845491252942       -1.74958848688219        0.92749985119024
Fe          -3.19382073661563        1.05741561663523        0.32227595155837
C           -0.47718820839400        0.56392665139371       -1.06888408078861
H           -0.93380522208949        0.62813649215141       -2.05785362841535
H           -0.54475645327916       -0.46862808541736       -0.72820090415661
N            0.97613533872773        0.90796769659564       -1.21619826988074
C            1.64049490517730        0.78858195981979        0.12188254449953
H            1.22464368603698        1.56891462359558        0.76193323949036
H            1.36882785256619       -0.18683614531362        0.52997563727833
C            1.10576417049672        2.28150443893908       -1.73437954196837
H            2.15793227357293        2.53692613850215       -1.83306712318072
H            0.63026047133704        2.34914235975829       -2.71036740436497
H            0.62246770478169        2.97819615448602       -1.05216450376015
C            1.57581467179423       -0.03638278598677       -2.17401664401950
H            1.05469837165550        0.02633050466317       -3.12647561727535
H            2.62622600833904        0.20397306293077       -2.32096673093936
H            1.49008530253750       -1.05187542536695       -1.79201493449209
P           -0.70002489572221       -3.22225320820774        0.61440884542261
F           -1.37098723271336       -2.77890176720343       -0.78983811220467
F            0.70600210064281       -2.56020291026730        0.13115647586358
F           -0.25706270566864       -4.63652945714647       -0.05441577835247
F           -0.00784692480103       -3.67663760674991        2.00699765416204
F           -2.09840030939196       -3.88588136871345        1.08957695004141
F           -1.12483322716336       -1.81403348629727        1.27436053079693
C            3.14227241484868        0.90308057781643        0.08063173569956
C            3.92190928490013       -0.24444984955049       -0.02921636648248
C            3.77027298207235        2.13943725868256        0.19084316566894
C            5.30237738734570       -0.15470260061889       -0.05476020694193
H            3.44573388498355       -1.21248460007632       -0.08163517824183
C            5.15177087466784        2.22763733374216        0.16270668323087
H            3.18405970565983        3.03640341414733        0.31960307702247
C            5.91969188914603        1.08261428801937        0.03255769672833
H            5.89340839876885       -1.05388714691500       -0.13883705863421
H            5.62824821802862        3.19160506664163        0.25163537504714
H            6.99632876018815        1.15099302797363        0.01396744002688
C            3.79519097860713        1.48343623532371        5.43793852606373
C            4.16754478732106        2.51012700803396        6.36369294054212
N            4.46454158383576        3.33394607969479        7.10174970523470
H            3.46505545429480        0.60194418767616        5.98566032313311
H            2.98149410796287        1.84120112091815        4.80939887302680
H            4.65094946861352        1.22403134250900        4.81600214985015
C           -3.04669515667679       -0.45243951074277        3.74118391292147
C           -1.85913685006801       -0.50238600825615        4.53575667220606
N           -0.90820669560044       -0.53545393858787        5.17346583355025
H           -3.67529440102223       -1.30831215683752        3.97916430342727
H           -3.58863226086837        0.46726822558145        3.94854269738162
H           -2.78010578972071       -0.48006069890235        2.68513491624091
C            2.89237421709802        7.89299945138794        4.89628068524003
C            2.41050989829661        6.83692834019287        4.05761487817291
N            2.02190493882420        5.99470923933208        3.38661659348623
H            3.18327390809028        7.48427437954722        5.86319556483669
H            3.75321892889087        8.36542444223105        4.42496968578841
H            2.10526333765055        8.63335806153712        5.03413196365278
C            2.16315972754512       -4.50311258473419        4.60553793890629
C            3.36552236032774       -3.85555596281813        4.17732111532190
N            4.32845622896532       -3.33987973328613        3.83368467882059
H            1.86820896621904       -4.11780741127114        5.58024194878201
H            1.37287887567251       -4.30122475388275        3.88360266776968
H            2.32835749616407       -5.57762352869895        4.67005922767518
C           -9.24623182093497        1.82025062267875        7.64473260259776
C           -8.31045708556608        1.52622764854605        6.60003364980924
N           -7.56452059598919        1.29289202293355        5.76375698183572
H           -8.70608456875912        2.12788883003988        8.53921695060964
H           -9.90627070360564        2.62500277733669        7.32344663812108
H           -9.83625321423199        0.93127347249315        7.86409419234491
C            8.00271738853800        5.34182823884921        4.24568159492715
C            8.48755393333334        4.03544326450357        3.91506235629756
N            8.87291809548830        2.99133065544073        3.64614897597051
H            8.10424941990129        5.50502087664363        5.31777264011908
H            8.57793427828857        6.09183830094654        3.70439324209605
H            6.95322487533688        5.41754231545646        3.96528125306238
C           -2.60953506970128       -7.12261336065464        2.43367539485805
C           -1.38955260388236       -7.87152871738101        2.41495556463183
N           -0.41536037088985       -8.47316430911486        2.40356539270146
H           -2.95725382366137       -7.01922081370648        3.46038684491365
H           -2.43140070564160       -6.13457656577623        2.01076230608229
H           -3.36408842220279       -7.63852708254779        1.84197565329965
C           -1.95021988574268        8.40779179416982        1.15486427340101
C           -0.88097110187651        9.36045641116354        1.14262412597913
N           -0.02510506948332       10.12119705593697        1.12597418963951
H           -1.89397787232967        7.80963950409712        2.06318292233855
H           -2.90382156034191        8.93292272367258        1.12032905693572
H           -1.86272533536703        7.75749503610754        0.28585541339420
C            9.29706936497210       -2.28220412495488        3.61474613974186
C           10.31363247011225       -3.23858727930827        3.93712571333259
N           11.12706735969019       -4.00325230779262        4.19171391523346
H            8.70123012476904       -2.07140781703730        4.50165800981686
H            9.76211182827410       -1.36227772499445        3.26340803172162
H            8.65261140504986       -2.68740877415302        2.83612999785965
C           -7.98236631468070       -3.87572850898230       -0.84060675628396
C           -7.34362966183872       -5.14963061186231       -0.69454633762997
N           -6.83986761933715       -6.17128601155914       -0.57794969000881
H           -7.99839642979621       -3.36664421531814        0.12196144183292
H           -7.42907284562703       -3.27387993741627       -1.55986285360280
H           -9.00238769197569       -4.02155497383924       -1.19362083813795
C            3.81769786698038        7.78540497819201       -1.26834373867174
C            4.91481726698845        7.78250656027435       -0.34798489631569
N            5.79311413668249        7.77921156706097        0.38670283178513
H            2.95897201310235        7.29814587298067       -0.80944401711989
H            3.55948822264432        8.81413304979691       -1.51608862555779
H            4.09993515702438        7.24998989770662       -2.17402392785757
C            2.88006676593890       -6.15974232742440       -0.63978784008075
C            3.19971173669488       -5.50974094342024       -1.87412501970363
N            3.45211265872748       -4.98350343938353       -2.85933271205707
H            3.70100650485879       -6.03353089795168        0.06431079199383
H            1.97712757774512       -5.71188967749311       -0.22592174697281
H            2.70792295694449       -7.22069640283584       -0.81368796103520
C           -5.70497089818056        5.80522971478362       -3.44438530784927
C           -5.39259318213226        7.15597143300217       -3.08642375561378
N           -5.14130777239546        8.23585653022990       -2.79952121189765
H           -5.98089851155996        5.24608414332182       -2.55183500683666
H           -6.53715861120335        5.79865935285569       -4.14700248490200
H           -4.83630136179963        5.34304576058829       -3.91096691087064
C            9.23965001765787        4.61312757286290       -2.51365946527882
C           10.16252204777807        5.15913240302415       -3.46450149676577
N           10.90014794800914        5.59519989927370       -4.22389883097059
H            9.76598490846974        3.92539018658598       -1.85301456627582
H            8.80646119283875        5.42109121988974       -1.92573181145550
H            8.44861866026514        4.08166091808125       -3.04081809802740
C           -1.99442791450443       -5.83421925592793       -2.94590294342951
C           -2.46458628833788       -4.95202390494649       -3.96977039922966
N           -2.84090612679009       -4.24987298410030       -4.79224484070758
H           -1.60381941414539       -5.24723100441919       -2.11539007404006
H           -2.81631390386017       -6.45472277352705       -2.59209156720894
H           -1.20207877327481       -6.46692654336525       -3.34296051452961
C           -0.41688717306372        9.07925438694642       -4.45303069948880
C           -0.39700922177984        7.67743481325469       -4.15986024503337
N           -0.37548619917445        6.55792180091915       -3.92126471583802
H           -0.41548972464631        9.64500550207316       -3.52202209814544
H            0.46300563634135        9.34153476154366       -5.03933612913747
H           -1.31577274537357        9.32060899954349       -5.01885174305021
C            5.09113727373574       -1.46034033596520       -6.19672548355091
C            5.02917814771967       -1.20060392651616       -7.60381053838343
N            4.97443134159123       -0.99085371196438       -8.72829870821087
H            5.41272657763213       -0.55990186154065       -5.67531921818855
H            4.10624800301340       -1.75781710624767       -5.84013111828897
H            5.80035429725140       -2.26468665535796       -6.00615605095811
C           -5.62099213438099       -0.54076224774870       -6.82051017822144
C           -6.16180743656653        0.74074313139933       -6.47886624354962
N           -6.58923640846212        1.76638437715834       -6.20276362777455
H           -6.03944943221766       -1.30126495300524       -6.16272176086189
H           -5.87029885616045       -0.77743042148174       -7.85393325677837
H           -4.53857708061300       -0.52035462597749       -6.70227810616703
C            3.04024189345663        4.00755577068369       -7.38158013013937
C            3.85326281418328        3.94689234366839       -6.20451339003867
N            4.49734312708114        3.89660100448466       -5.25906197088314
H            1.99323488094874        4.09355216010959       -7.09368653424768
H            3.32723820388238        4.87184965503111       -7.97904383601861
H            3.18171863692325        3.10022677461644       -7.96740057432994
C           -0.18854055661415       -2.04232144333908       -8.96679979006848
C           -0.08232666417374       -0.95770678116519       -8.03799639945645
N           -0.00195940162533       -0.09030191342145       -7.29502502519765
H           -0.45286997775280       -2.95267709067566       -8.42998781795121
H           -0.95911988773945       -1.81730270285563       -9.70300699718666
H            0.76607626853347       -2.18236322742121       -9.47220628904378



